/*--------------------------------*- C++ -*----------------------------------*\
  =========                 |
  \\      /  F ield         | OpenFOAM: The Open Source CFD Toolbox
   \\    /   O peration     | Website:  https://openfoam.org
    \\  /    A nd           | Version:  6
     \\/     M anipulation  |
\*---------------------------------------------------------------------------*/
FoamFile
{
    version     2.0;
    format      ascii;
    class       volScalarField;
    location    "0.01";
    object      alphat;
}
// * * * * * * * * * * * * * * * * * * * * * * * * * * * * * * * * * * * * * //

dimensions      [1 -1 -1 0 0 0 0];

internalField   uniform 0;

boundaryField
{

    inlet
    {
		type            calculated;
		value           uniform 0;
    }
    outlet
    {
		type            calculated;
		value           uniform 0;
    }
    adiabatic_walls
    {
		type            compressible::alphatJayatillekeWallFunction;
		Prt             0.85; //Turbulent Prandtl number
		value           uniform 0;
    }
    simmetry_faces
    {
		type		symmetry;
    }
    air_fluid_to_chip_solid
    {
		type            compressible::alphatJayatillekeWallFunction;
		Prt             0.85; //Turbulent Prandtl number
		value           uniform 0;
    }
    air_fluid_to_heat_sink_solid
    {
		type            compressible::alphatJayatillekeWallFunction;
		Prt             0.85; //Turbulent Prandtl number
		value           uniform 0;
    }

}

