/*--------------------------------*- C++ -*----------------------------------*\
  =========                 |
  \\      /  F ield         | OpenFOAM: The Open Source CFD Toolbox
   \\    /   O peration     | Website:  https://openfoam.org
    \\  /    A nd           | Version:  6
     \\/     M anipulation  |
\*---------------------------------------------------------------------------*/
FoamFile
{
    version     2.0;
    format      ascii;
    class       volScalarField;
    object      G;
}
// * * * * * * * * * * * * * * * * * * * * * * * * * * * * * * * * * * * * * //

dimensions      [1 0 -3 0 0 0 0];

internalField   uniform 0;

boundaryField
{

    inlet
    {
		type            MarshakRadiation;
		emissivityMode  lookup;
		emissivity      uniform 1.0;
		value           uniform 0;
    }
    outlet
    {
		type            MarshakRadiation;
		emissivityMode  lookup;
		emissivity      uniform 1.0;
		value           uniform 0;
    }
    adiabatic_walls
    {
		type            MarshakRadiation;
		emissivityMode  lookup;
		emissivity      uniform 1.0;
		value           uniform 0;
    }
    simmetry_faces
    {
		type            symmetry;
    }
    air_fluid_to_chip_solid
    {
		type            MarshakRadiation;
		emissivityMode  lookup;
		emissivity      uniform 1.0;
		value           uniform 0;
    }
    air_fluid_to_heat_sink_solid
    {
		type            MarshakRadiation;
		emissivityMode  lookup;
		emissivity      uniform 1.0;
		value           uniform 0;
    }

}
