/*--------------------------------*- C++ -*----------------------------------*\
  =========                 |
  \\      /  F ield         | OpenFOAM: The Open Source CFD Toolbox
   \\    /   O peration     | Website:  https://openfoam.org
    \\  /    A nd           | Version:  6
     \\/     M anipulation  |
\*---------------------------------------------------------------------------*/
FoamFile
{
    version     2.0;
    format      ascii;
    class       volScalarField;
    location    "0.01";
    object      nut;
}
// * * * * * * * * * * * * * * * * * * * * * * * * * * * * * * * * * * * * * //

dimensions      [0 2 -1 0 0 0 0];

internalField   uniform 1;

boundaryField
{

    inlet
    {
		type            calculated;
		value           uniform 1;
    }
    outlet
    {
		type            calculated;
		value           uniform 1;
    }
    adiabatic_walls
    {
		type            nutkWallFunction; //wall function based on the magnitude of k
		value           uniform 1;
    }
    simmetry_faces
    {
		type            symmetry;
    }
    air_fluid_to_chip_solid
    {
		type            nutkWallFunction; //wall function based on the magnitude of k
		value           uniform 1;
    }
    air_fluid_to_heat_sink_solid
    {
		type            nutkWallFunction; //wall function based on the magnitude of k
		value           uniform 1;
    }

}
