/*--------------------------------*- C++ -*----------------------------------*\
  =========                 |
  \\      /  F ield         | OpenFOAM: The Open Source CFD Toolbox
   \\    /   O peration     | Website:  https://openfoam.org
    \\  /    A nd           | Version:  7
     \\/     M anipulation  |
\*---------------------------------------------------------------------------*/
FoamFile
{
    version     2.0;
    format      ascii;
    class       volScalarField;
    location    "0/fluid";
    object      p_rgh;
}
// * * * * * * * * * * * * * * * * * * * * * * * * * * * * * * * * * * * * * //

dimensions      [ 1 -1 -2 0 0 0 0 ];

internalField   uniform 0;

boundaryField
{
	inlet
	{
		type            fixedFluxPressure;
		value           $internalField;
	}
	outlet
	{
		type            fixedValue;
		value           uniform 0;
	}
	adiabatic_walls
	{
		type            fixedFluxPressure;
		value           $internalField;
	}
	simmetry_faces
	{
		type 		symmetry;
	}
	air_fluid_to_chip_solid
	{
		type            fixedFluxPressure;
		value           $internalField;
	}
	air_fluid_to_heat_sink_solid
	{
		type            fixedFluxPressure;
		value           $internalField;
	}
}
