/*--------------------------------*- C++ -*----------------------------------*\
  =========                 |
  \\      /  F ield         | OpenFOAM: The Open Source CFD Toolbox
   \\    /   O peration     | Website:  https://openfoam.org
    \\  /    A nd           | Version:  7
     \\/     M anipulation  |
\*---------------------------------------------------------------------------*/
FoamFile
{
    version     2.0;
    format      ascii;
    class       volScalarField;
    location    "0/fluid";
    object      T;
}
// * * * * * * * * * * * * * * * * * * * * * * * * * * * * * * * * * * * * * //

dimensions      [ 0 0 0 1 0 0 0 ];

internalField   uniform 300;

boundaryField
{

    inlet
    {
		type            	fixedValue;
		value			uniform 300;  //Temperture value
    }
    outlet
    {
		type            	inletOutlet;
		value           	$internalField;
		inletValue      	$internalField;
    }
    adiabatic_walls
    {
		type            	zeroGradient;
    }
    simmetry_faces
    {
		type		symmetry;
    }
    air_fluid_to_chip_solid
    {
		type            	compressible::turbulentTemperatureRadCoupledMixed;
		Tnbr            	T;
		kappaMethod     	fluidThermo;
		kappa           	kappa;
		value           	$internalField;		//Initial value
    }
    air_fluid_to_heat_sink_solid
    {
		type            	compressible::turbulentTemperatureRadCoupledMixed;
		Tnbr            	T;
		kappaMethod     	fluidThermo;
		kappa           	kappa;
		value           	$internalField;		//Initial value
    }

}
