/*--------------------------------*- C++ -*----------------------------------*\
  =========                 |
  \\      /  F ield         | OpenFOAM: The Open Source CFD Toolbox
   \\    /   O peration     | Website:  https://openfoam.org
    \\  /    A nd           | Version:  7
     \\/     M anipulation  |
\*---------------------------------------------------------------------------*/
FoamFile
{
    version     2.0;
    format      ascii;
    class       volVectorField;
    location    "0/fluid";
    object      U;
}
// * * * * * * * * * * * * * * * * * * * * * * * * * * * * * * * * * * * * * //

dimensions      [ 0 1 -1 0 0 0 0 ];

internalField   uniform (0 0 0);

boundaryField
{

    inlet
    {
		type            fixedValue;
		value           uniform (0.0 0.0 0.5);
    }
    outlet
    {
		type            pressureInletOutletVelocity;
		value           $internalField;
    }
    adiabatic_walls
    {
		type            noSlip;
    }
    simmetry_faces
    {
		type            symmetry;
    }
    air_fluid_to_chip_solid
    {
		type            noSlip;
    }
    air_fluid_to_heat_sink_solid
    {
		type            noSlip;
    }

}
