/*--------------------------------*- C++ -*----------------------------------*\
  =========                 |
  \\      /  F ield         | OpenFOAM: The Open Source CFD Toolbox
   \\    /   O peration     | Website:  https://openfoam.org
    \\  /    A nd           | Version:  6
     \\/     M anipulation  |
\*---------------------------------------------------------------------------*/
FoamFile
{
    version     2.0;
    format      ascii;
    class       volScalarField;
    location    "0/air";
    object      alphat;
}
// * * * * * * * * * * * * * * * * * * * * * * * * * * * * * * * * * * * * * //

//Prantel number

dimensions      [1 -1 -1 0 0 0 0];

internalField   uniform 0;

boundaryField
{

    hvac1_supply
    {
		  type            calculated;
		  value           uniform 0;
    }
    hvac1_return
    {
		  type            calculated;
		  value           uniform 0;
    }
    awall
    {
		  type            calculated;
		  value           uniform 0;
    }
    bwall    {
		  type            calculated;
		  value           uniform 0;
    }
    cwall
    {
		  type            calculated;
		  value           uniform 0;
    }
    dwall
    {
		  type            calculated;
		  value           uniform 0;
    }
    ceiling
    {
		  type            calculated;
		  value           uniform 0;
    }
    floor
    {
		  type            compressible::alphatJayatillekeWallFunction;
		  Prt             0.85; //Turbulent Prandtl number
		  value           uniform 0;
    }
    air_to_ups1
    {
      type            compressible::alphatJayatillekeWallFunction;
      Prt             0.85; //Turbulent Prandtl number
      value           uniform 0;
    }
}

