/*--------------------------------*- C++ -*----------------------------------*\
  =========                 |
  \\      /  F ield         | OpenFOAM: The Open Source CFD Toolbox
   \\    /   O peration     | Website:  https://openfoam.org
    \\  /    A nd           | Version:  6
     \\/     M anipulation  |
\*---------------------------------------------------------------------------*/
FoamFile
{
    version     2.0;
    format      ascii;
    class       volScalarField;
    location    "0/air";
    object      epsilon;
}
// * * * * * * * * * * * * * * * * * * * * * * * * * * * * * * * * * * * * * //

dimensions      [0 2 -3 0 0 0 0];

internalField   uniform 1;

boundaryField
{
    hvac1_supply
    {
      type            turbulentMixingLengthDissipationRateInlet;
		  mixingLength    0.0228; 	//a good estimation is 0.07*characteristic_length
		  value           uniform 0.085;
    }
    hvac1_return
    {
      type            fixedGradient;
		  gradient        uniform 0;
    }
    awall
    {
      type            epsilonWallFunction;
		  value           uniform 1;
    }
    bwall    
    {
      type            epsilonWallFunction;
		  value           uniform 1;
    }
    cwall
    {
      type            epsilonWallFunction;
		  value           uniform 1;
    }
    dwall
    {
      type            epsilonWallFunction;
		  value           uniform 1;
    }
    ceiling
    {
      type            epsilonWallFunction;
		  value           uniform 1;
    }
    floor
    {
      type            epsilonWallFunction;
		  value           uniform 1;
    }    
    air_to_ups1
    {
      type            epsilonWallFunction;
		  value           uniform 1;
    }
}
