/*--------------------------------*- C++ -*----------------------------------*\
  =========                 |
  \\      /  F ield         | OpenFOAM: The Open Source CFD Toolbox
   \\    /   O peration     | Website:  https://openfoam.org
    \\  /    A nd           | Version:  6
     \\/     M anipulation  |
\*---------------------------------------------------------------------------*/
FoamFile
{
    version     2.0;
    format      ascii;
    class       volScalarField;
    location    "0/air";
    object      G;
}
// * * * * * * * * * * * * * * * * * * * * * * * * * * * * * * * * * * * * * //

dimensions      [1 0 -3 0 0 0 0];

internalField   uniform 0;

boundaryField
{
      hvac1_supply
    {
      type            MarshakRadiation;
      emissivityMode  lookup;
      emissivity      uniform 1.0;
      value           uniform 0;
    }
    hvac1_return
    {
      type            MarshakRadiation;
      emissivityMode  lookup;
      emissivity      uniform 1.0;
      value           uniform 0;
    }
    awall
    {
      type            MarshakRadiation;
      emissivityMode  lookup;
      emissivity      uniform 1.0;
      value           uniform 0;
    }
    bwall    
    {
      type            MarshakRadiation;
      emissivityMode  lookup;
      emissivity      uniform 1.0;
      value           uniform 0;
    }
    cwall
    {
      type            MarshakRadiation;
      emissivityMode  lookup;
      emissivity      uniform 1.0;
      value           uniform 0;
    }
    dwall
    {
      type            MarshakRadiation;
      emissivityMode  lookup;
      emissivity      uniform 1.0;
      value           uniform 0;
    }
    ceiling
    {
      type            MarshakRadiation;
      emissivityMode  lookup;
      emissivity      uniform 1.0;
      value           uniform 0;
    }
    floor
    {
      type            MarshakRadiation;
      emissivityMode  lookup;
      emissivity      uniform 1.0;
      value           uniform 0;
    }    
    air_to_ups1
    {
      type            MarshakRadiation;
      emissivityMode  lookup;
      emissivity      uniform 1.0;
      value           uniform 0;
    }
}
