/*--------------------------------*- C++ -*----------------------------------*\
  =========                 |
  \\      /  F ield         | OpenFOAM: The Open Source CFD Toolbox
   \\    /   O peration     | Website:  https://openfoam.org
    \\  /    A nd           | Version:  7
     \\/     M anipulation  |
\*---------------------------------------------------------------------------*/
FoamFile
{
    version     2.0;
    format      ascii;
    class       volScalarField;
    location    "0/air";
    object      T;
}
// * * * * * * * * * * * * * * * * * * * * * * * * * * * * * * * * * * * * * //

dimensions      [ 0 0 0 1 0 0 0 ];

internalField   uniform 314.85;

boundaryField
{
    hvac1_supply
    {
      type      fixedValue;
		  value			uniform 284.85;  //Temperture value
    }
    hvac1_return
    {
      // type            	inletOutlet;
		  // value           	$internalField;
		  // inletValue      	$internalField;
      type            	zeroGradient;
    }
    awall
    {
      //type wallHeatTransfer;
      //Tif uniform 314.85; //ambient temperature[K]
      //alphaWall uniform 4.212; // thermal diffusivity [W/m2]
      type            	zeroGradient;
    }
    bwall    
    {
      //type wallHeatTransfer;
      //Tif uniform 314.85; //ambient temperature[K]
      //alphaWall uniform 4.212; // thermal diffusivity [W/m2]
      type            	zeroGradient;
    }
    cwall
    {
      //type wallHeatTransfer;
      //Tif uniform 314.85; //ambient temperature[K]
      //alphaWall uniform 4.212; // thermal diffusivity [W/m2]
      type            	zeroGradient;
    }
    dwall
    {
      //type wallHeatTransfer;
      //Tif uniform 314.85; //ambient temperature[K]
      //alphaWall uniform 4.212; // thermal diffusivity [W/m2]
      type            	zeroGradient;
    }
    ceiling
    {
      //type wallHeatTransfer;
      //Tif uniform 314.85; //ambient temperature[K]
      //alphaWall uniform 5.317; // thermal diffusivity [W/m2]
      type            	zeroGradient;
    }
    floor
    {
      type            	zeroGradient;
    }    
    air_to_ups1
    {
      type            	compressible::turbulentTemperatureRadCoupledMixed;
      Tnbr            	T;
      kappaMethod     	fluidThermo;
      kappa           	kappa;
      value           	$internalField;		//Initial value
    }
}
