/*--------------------------------*- C++ -*----------------------------------*\
  =========                 |
  \\      /  F ield         | OpenFOAM: The Open Source CFD Toolbox
   \\    /   O peration     | Website:  https://openfoam.org
    \\  /    A nd           | Version:  7
     \\/     M anipulation  |
\*---------------------------------------------------------------------------*/
FoamFile
{
    version     2.0;
    format      ascii;
    class       volVectorField;
    location    "0/air";
    object      U;
}
// * * * * * * * * * * * * * * * * * * * * * * * * * * * * * * * * * * * * * //

dimensions      [ 0 1 -1 0 0 0 0 ];

internalField   uniform (0 0 0);

boundaryField
{
    hvac1_supply
    {
      //type            fixedValue;
		  //value           uniform (0.0 0.0 -5.4);
      type                flowRateInletVelocity;
      volumetricFlowRate  2.832;
      //extrapolateProfile  yes;
      value               uniform (0 0 0);
    }
    hvac1_return
    {
      //type            fixedValue;
		  //value           uniform (0.0 0.0 2.3);
      type                flowRateOutletVelocity;
      volumetricFlowRate  2.832;
      value               uniform (0 0 0);
    }
    awall
    {
      type            noSlip;
    }
    bwall    
    {
      type            noSlip;
    }
    cwall
    {
      type            noSlip;
    }
    dwall
    {
      type            noSlip;
    }
    ceiling
    {
      type            noSlip;
    }
    floor
    {
      type            noSlip;
    }    
    air_to_ups1
    {
      type            noSlip;
    }
}
