/*--------------------------------*- C++ -*----------------------------------*\
| =========                 |                                                 |
| \\      /  F ield         | OpenFOAM: The Open Source CFD Toolbox           |
|  \\    /   O peration     | Version:  2112                                  |
|   \\  /    A nd           | Website:  www.openfoam.com                      |
|    \\/     M anipulation  |                                                 |
\*---------------------------------------------------------------------------*/
FoamFile
{
    version     2.0;
    format      ascii;
    arch        "LSB;label=32;scalar=64";
    class       featureEdgeMesh;
    location    "constant/triSurface";
    object      tea.eMesh;
}
// * * * * * * * * * * * * * * * * * * * * * * * * * * * * * * * * * * * * * //


// points:

178
(
(-0.047625002 0.0063499999 1.9441269e-18)
(0.047625002 0.0063499999 3.8882539e-18)
(-0.047395669 0.0063499999 -0.0046680658)
(-0.046709899 0.0063499999 -0.0092911767)
(-0.045574281 0.0063499999 -0.01382481)
(-0.043999761 0.0063499999 -0.018225299)
(-0.042001501 0.0063499999 -0.02245027)
(-0.039598741 0.0063499999 -0.026459031)
(-0.036814619 0.0063499999 -0.03021298)
(-0.033675961 0.0063499999 -0.033675961)
(-0.03021298 0.0063499999 -0.036814619)
(-0.026459031 0.0063499999 -0.039598741)
(-0.02245027 0.0063499999 -0.042001501)
(-0.018225299 0.0063499999 -0.043999761)
(-0.01382481 0.0063499999 -0.045574281)
(-0.0092911767 0.0063499999 -0.046709899)
(-0.0046680658 0.0063499999 -0.047395669)
(9.2569908e-17 0.0063499999 -0.047625002)
(0.0046680658 0.0063499999 -0.047395669)
(0.0092911767 0.0063499999 -0.046709899)
(0.01382481 0.0063499999 -0.045574281)
(0.018225299 0.0063499999 -0.043999761)
(0.02245027 0.0063499999 -0.042001501)
(0.026459031 0.0063499999 -0.039598741)
(0.03021298 0.0063499999 -0.036814619)
(0.033675961 0.0063499999 -0.033675961)
(0.036814619 0.0063499999 -0.03021298)
(0.039598741 0.0063499999 -0.026459031)
(0.042001501 0.0063499999 -0.02245027)
(0.043999761 0.0063499999 -0.018225299)
(0.045574281 0.0063499999 -0.01382481)
(0.046709899 0.0063499999 -0.0092911767)
(0.047395669 0.0063499999 -0.0046680658)
(0.046709899 0.0063499999 0.0092911767)
(0.047395669 0.0063499999 0.0046680658)
(0.045574281 0.0063499999 0.01382481)
(0.043999761 0.0063499999 0.018225299)
(0.042001501 0.0063499999 0.02245027)
(0.039598741 0.0063499999 0.026459031)
(0.036814619 0.0063499999 0.03021298)
(0.033675961 0.0063499999 0.033675961)
(0.03021298 0.0063499999 0.036814619)
(0.026459031 0.0063499999 0.039598741)
(0.02245027 0.0063499999 0.042001501)
(0.018225299 0.0063499999 0.043999761)
(0.01382481 0.0063499999 0.045574281)
(0.0092911767 0.0063499999 0.046709899)
(0.0046680658 0.0063499999 0.047395669)
(1.745591e-17 0.0063499999 0.047625002)
(-0.0046680658 0.0063499999 0.047395669)
(-0.0092911767 0.0063499999 0.046709899)
(-0.01382481 0.0063499999 0.045574281)
(-0.02245027 0.0063499999 0.042001501)
(-0.018225299 0.0063499999 0.043999761)
(-0.026459031 0.0063499999 0.039598741)
(-0.03021298 0.0063499999 0.036814619)
(-0.033675961 0.0063499999 0.033675961)
(-0.039598741 0.0063499999 0.026459031)
(-0.036814619 0.0063499999 0.03021298)
(-0.042001501 0.0063499999 0.02245027)
(-0.043999761 0.0063499999 0.018225299)
(-0.045574281 0.0063499999 0.01382481)
(-0.046709899 0.0063499999 0.0092911767)
(-0.047395669 0.0063499999 0.0046680658)
(0.047433279 0.0063499999 -0.0042690719)
(0.046859652 0.0063499999 -0.0085037723)
(0.04590873 0.0063499999 -0.01267)
(0.04458819 0.0063499999 -0.016734229)
(0.042908639 0.0063499999 -0.02066371)
(0.040883619 0.0063499999 -0.024426829)
(0.03852943 0.0063499999 -0.027993269)
(0.035865031 0.0063499999 -0.031334329)
(0.032911859 0.0063499999 -0.034423109)
(0.0296937 0.0063499999 -0.03723472)
(0.026236471 0.0063499999 -0.039746549)
(0.022568 0.0063499999 -0.041938361)
(0.01871782 0.0063499999 -0.043792509)
(0.01471693 0.0063499999 -0.045294069)
(0.01059756 0.0063499999 -0.046430942)
(0.0063928589 0.0063499999 -0.047193982)
(0.002136688 0.0063499999 -0.047577038)
(-0.002136688 0.0063499999 -0.047577038)
(-0.0063928589 0.0063499999 -0.047193982)
(-0.01059756 0.0063499999 -0.046430942)
(-0.01471693 0.0063499999 -0.045294069)
(-0.01871782 0.0063499999 -0.043792509)
(-0.022568 0.0063499999 -0.041938361)
(-0.026236471 0.0063499999 -0.039746549)
(-0.0296937 0.0063499999 -0.03723472)
(-0.032911859 0.0063499999 -0.034423109)
(-0.035865031 0.0063499999 -0.031334329)
(-0.03852943 0.0063499999 -0.027993269)
(-0.040883619 0.0063499999 -0.024426829)
(-0.042908639 0.0063499999 -0.02066371)
(-0.04458819 0.0063499999 -0.016734229)
(-0.04590873 0.0063499999 -0.01267)
(-0.046859652 0.0063499999 -0.0085037723)
(-0.047433279 0.0063499999 -0.0042690719)
(-0.047433279 0.0063499999 0.0042690719)
(-0.046859652 0.0063499999 0.0085037723)
(-0.04590873 0.0063499999 0.01267)
(-0.04458819 0.0063499999 0.016734229)
(-0.042908639 0.0063499999 0.02066371)
(-0.040883619 0.0063499999 0.024426829)
(-0.03852943 0.0063499999 0.027993269)
(-0.035865031 0.0063499999 0.031334329)
(-0.032911859 0.0063499999 0.034423109)
(-0.0296937 0.0063499999 0.03723472)
(-0.026236471 0.0063499999 0.039746549)
(-0.022568 0.0063499999 0.041938361)
(-0.01871782 0.0063499999 0.043792509)
(-0.01471693 0.0063499999 0.045294069)
(-0.01059756 0.0063499999 0.046430942)
(-0.0063928589 0.0063499999 0.047193982)
(-0.002136688 0.0063499999 0.047577038)
(0.002136688 0.0063499999 0.047577038)
(0.0063928589 0.0063499999 0.047193982)
(0.01059756 0.0063499999 0.046430942)
(0.01471693 0.0063499999 0.045294069)
(0.01871782 0.0063499999 0.043792509)
(0.022568 0.0063499999 0.041938361)
(0.026236471 0.0063499999 0.039746549)
(0.0296937 0.0063499999 0.03723472)
(0.032911859 0.0063499999 0.034423109)
(0.035865031 0.0063499999 0.031334329)
(0.03852943 0.0063499999 0.027993269)
(0.040883619 0.0063499999 0.024426829)
(0.042908639 0.0063499999 0.02066371)
(0.04458819 0.0063499999 0.016734229)
(0.04590873 0.0063499999 0.01267)
(0.046859652 0.0063499999 0.0085037723)
(0.047433279 0.0063499999 0.0042690719)
(-0.025135189 -0.111125 4.4552758e-18)
(-0.024901081 -0.111125 -0.0034225739)
(-0.02420311 -0.111125 -0.0067813918)
(-0.023054279 -0.111125 -0.01001389)
(-0.021475989 -0.111125 -0.01305984)
(-0.01949765 -0.111125 -0.01586251)
(-0.0171561 -0.111125 -0.018369701)
(-0.01449497 -0.111125 -0.02053469)
(-0.01156382 -0.111125 -0.02231716)
(-0.0084172618 -0.111125 -0.0236839)
(-0.0051139048 -0.111125 -0.02460946)
(-0.0017152861 -0.111125 -0.02507659)
(0.0017152861 -0.111125 -0.02507659)
(0.0051139048 -0.111125 -0.02460946)
(0.0084172618 -0.111125 -0.0236839)
(0.01156382 -0.111125 -0.02231716)
(0.01449497 -0.111125 -0.02053469)
(0.0171561 -0.111125 -0.018369701)
(0.01949765 -0.111125 -0.01586251)
(0.021475989 -0.111125 -0.01305984)
(0.023054279 -0.111125 -0.01001389)
(0.02420311 -0.111125 -0.0067813918)
(0.024901081 -0.111125 -0.0034225739)
(0.025135189 -0.111125 0)
(0.024901081 -0.111125 0.0034225739)
(0.02420311 -0.111125 0.0067813918)
(0.023054279 -0.111125 0.01001389)
(0.021475989 -0.111125 0.01305984)
(0.01949765 -0.111125 0.01586251)
(0.0171561 -0.111125 0.018369701)
(0.01449497 -0.111125 0.02053469)
(0.01156382 -0.111125 0.02231716)
(0.0084172618 -0.111125 0.0236839)
(0.0051139048 -0.111125 0.02460946)
(0.0017152861 -0.111125 0.02507659)
(-0.0017152861 -0.111125 0.02507659)
(-0.0051139048 -0.111125 0.02460946)
(-0.0084172618 -0.111125 0.0236839)
(-0.01156382 -0.111125 0.02231716)
(-0.01449497 -0.111125 0.02053469)
(-0.0171561 -0.111125 0.018369701)
(-0.01949765 -0.111125 0.01586251)
(-0.021475989 -0.111125 0.01305984)
(-0.023054279 -0.111125 0.01001389)
(-0.02420311 -0.111125 0.0067813918)
(-0.024901081 -0.111125 0.0034225739)
)


// edges:

180
(
(132 133)
(133 134)
(134 135)
(135 136)
(136 137)
(137 138)
(138 139)
(139 140)
(140 141)
(141 142)
(142 143)
(143 144)
(144 145)
(145 146)
(146 147)
(147 148)
(148 149)
(149 150)
(150 151)
(151 152)
(152 153)
(153 154)
(154 155)
(155 156)
(156 157)
(157 158)
(158 159)
(159 160)
(160 161)
(161 162)
(162 163)
(163 164)
(164 165)
(165 166)
(166 167)
(167 168)
(168 169)
(169 170)
(170 171)
(171 172)
(172 173)
(173 174)
(174 175)
(175 176)
(176 177)
(177 132)
(2 0)
(3 2)
(4 3)
(5 4)
(6 5)
(7 6)
(8 7)
(9 8)
(10 9)
(11 10)
(12 11)
(13 12)
(14 13)
(15 14)
(16 15)
(17 16)
(18 17)
(19 18)
(20 19)
(21 20)
(22 21)
(23 22)
(24 23)
(25 24)
(26 25)
(27 26)
(28 27)
(29 28)
(30 29)
(31 30)
(32 31)
(1 32)
(33 34)
(34 1)
(35 33)
(36 35)
(37 36)
(38 37)
(39 38)
(40 39)
(41 40)
(42 41)
(43 42)
(44 43)
(45 44)
(46 45)
(47 46)
(48 47)
(49 48)
(50 49)
(51 50)
(52 53)
(53 51)
(54 52)
(55 54)
(56 55)
(57 58)
(58 56)
(59 57)
(60 59)
(61 60)
(62 61)
(63 62)
(0 63)
(1 64)
(64 65)
(65 66)
(66 67)
(67 68)
(68 69)
(69 70)
(70 71)
(71 72)
(72 73)
(73 74)
(74 75)
(75 76)
(76 77)
(77 78)
(78 79)
(79 80)
(80 81)
(81 82)
(82 83)
(83 84)
(84 85)
(85 86)
(86 87)
(87 88)
(88 89)
(89 90)
(90 91)
(91 92)
(92 93)
(93 94)
(94 95)
(95 96)
(96 97)
(97 0)
(0 98)
(98 99)
(99 100)
(100 101)
(101 102)
(102 103)
(103 104)
(104 105)
(105 106)
(106 107)
(107 108)
(108 109)
(109 110)
(110 111)
(111 112)
(112 113)
(113 114)
(114 115)
(115 116)
(116 117)
(117 118)
(118 119)
(119 120)
(120 121)
(121 122)
(122 123)
(123 124)
(124 125)
(125 126)
(126 127)
(127 128)
(128 129)
(129 130)
(130 131)
(131 1)
)

// * * * * * * * * * * * * * * * * * * * * * * * * * * * * * * * * * * * * * //


// ************************************************************************* //
