/*--------------------------------*- C++ -*----------------------------------*\
| =========                 |                                                 |
| \\      /  F ield         | OpenFOAM: The Open Source CFD Toolbox           |
|  \\    /   O peration     | Version:  2112                                  |
|   \\  /    A nd           | Website:  www.openfoam.com                      |
|    \\/     M anipulation  |                                                 |
\*---------------------------------------------------------------------------*/
FoamFile
{
    version     2.0;
    format      ascii;
    arch        "LSB;label=32;scalar=64";
    class       extendedFeatureEdgeMesh;
    location    "constant/extendedFeatureEdgeMesh";
    object      cup.extendedFeatureEdgeMesh;
}
// * * * * * * * * * * * * * * * * * * * * * * * * * * * * * * * * * * * * * //

// points

299
(
(0.050799999 0.017145 0)
(0.050799999 0.0084641529 -0.001924928)
(0.050799999 0.0083049824 -0.00094958523)
(0.050799999 0.0082550002 0)
(0.050715409 0.01664342 0.002930349)
(0.050773431 0.016993919 0.001642216)
(0.050799999 0.01709502 0.00094958523)
(0.05079326 0.017107541 0.00082517578)
(0.050781399 0.0083599584 -0.00137261)
(0.050727598 0.0086799739 -0.002710338)
(0.050758291 0.016905021 -0.002058256)
(0.05075812 0.0084959446 0.002062276)
(0.02697932 -0.1143 4.7626098e-18)
(0.02670471 -0.1143 -0.0038395571)
(0.025886459 -0.1143 -0.0076009519)
(0.024541249 -0.1143 -0.01120761)
(0.02269645 -0.1143 -0.01458612)
(0.020389611 -0.1143 -0.0176677)
(0.0176677 -0.1143 -0.020389611)
(0.01458612 -0.1143 -0.02269645)
(0.01120761 -0.1143 -0.024541249)
(0.0076009519 -0.1143 -0.025886459)
(0.0038395571 -0.1143 -0.02670471)
(4.2916182e-17 -0.1143 -0.02697932)
(-0.0038395571 -0.1143 -0.02670471)
(-0.0076009519 -0.1143 -0.025886459)
(-0.01120761 -0.1143 -0.024541249)
(-0.01458612 -0.1143 -0.02269645)
(-0.0176677 -0.1143 -0.020389611)
(-0.020389611 -0.1143 -0.0176677)
(-0.02269645 -0.1143 -0.01458612)
(-0.024541249 -0.1143 -0.01120761)
(-0.025886459 -0.1143 -0.0076009519)
(-0.02670471 -0.1143 -0.0038395571)
(-0.02697932 -0.1143 0)
(-0.047345821 0.0063499999 0.005149168)
(-0.047625002 0.0063499999 1.9441269e-18)
(-0.04651155 0.0063499999 0.01023797)
(-0.045131981 0.0063499999 0.01520674)
(-0.04322328 0.0063499999 0.01999722)
(-0.040807821 0.0063499999 0.024553251)
(-0.03791393 0.0063499999 0.02882142)
(-0.034575541 0.0063499999 0.032751691)
(-0.030831769 0.0063499999 0.03629797)
(-0.026726531 0.0063499999 0.03941869)
(-0.022307949 0.0063499999 0.042077258)
(-0.01762783 0.0063499999 0.04424252)
(-0.01274104 0.0063499999 0.045889068)
(-0.007704868 0.0063499999 0.04699761)
(-0.0025783661 0.0063499999 0.047555149)
(0.0025783661 0.0063499999 0.047555149)
(0.007704868 0.0063499999 0.04699761)
(0.01274104 0.0063499999 0.045889068)
(0.01762783 0.0063499999 0.04424252)
(0.022307949 0.0063499999 0.042077258)
(0.026726531 0.0063499999 0.03941869)
(0.030831769 0.0063499999 0.03629797)
(0.034575541 0.0063499999 0.032751691)
(0.03791393 0.0063499999 0.02882142)
(0.040807821 0.0063499999 0.024553251)
(0.04322328 0.0063499999 0.01999722)
(0.045131981 0.0063499999 0.01520674)
(0.04651155 0.0063499999 0.01023797)
(0.047345821 0.0063499999 0.005149168)
(0.047625002 0.0063499999 3.8882539e-18)
(-0.02670471 -0.1143 0.0038395571)
(-0.025886459 -0.1143 0.0076009519)
(-0.024541249 -0.1143 0.01120761)
(-0.02269645 -0.1143 0.01458612)
(-0.020389611 -0.1143 0.0176677)
(-0.0176677 -0.1143 0.020389611)
(-0.01458612 -0.1143 0.02269645)
(-0.01120761 -0.1143 0.024541249)
(-0.0076009519 -0.1143 0.025886459)
(-0.0038395571 -0.1143 0.02670471)
(6.3550938e-18 -0.1143 0.02697932)
(0.0038395571 -0.1143 0.02670471)
(0.0076009519 -0.1143 0.025886459)
(0.01120761 -0.1143 0.024541249)
(0.01458612 -0.1143 0.02269645)
(0.0176677 -0.1143 0.020389611)
(0.020389611 -0.1143 0.0176677)
(0.02269645 -0.1143 0.01458612)
(0.024541249 -0.1143 0.01120761)
(0.025886459 -0.1143 0.0076009519)
(0.02670471 -0.1143 0.0038395571)
(0.047345821 0.0063499999 -0.005149168)
(0.04651155 0.0063499999 -0.01023797)
(0.045131981 0.0063499999 -0.01520674)
(0.04322328 0.0063499999 -0.01999722)
(0.040807821 0.0063499999 -0.024553251)
(0.03791393 0.0063499999 -0.02882142)
(0.034575541 0.0063499999 -0.032751691)
(0.030831769 0.0063499999 -0.03629797)
(0.026726531 0.0063499999 -0.03941869)
(0.022307949 0.0063499999 -0.042077258)
(0.01762783 0.0063499999 -0.04424252)
(0.01274104 0.0063499999 -0.045889068)
(0.007704868 0.0063499999 -0.04699761)
(0.0025783661 0.0063499999 -0.047555149)
(-0.0025783661 0.0063499999 -0.047555149)
(-0.007704868 0.0063499999 -0.04699761)
(-0.01274104 0.0063499999 -0.045889068)
(-0.01762783 0.0063499999 -0.04424252)
(-0.022307949 0.0063499999 -0.042077258)
(-0.026726531 0.0063499999 -0.03941869)
(-0.030831769 0.0063499999 -0.03629797)
(-0.034575541 0.0063499999 -0.032751691)
(-0.03791393 0.0063499999 -0.02882142)
(-0.040807821 0.0063499999 -0.024553251)
(-0.04322328 0.0063499999 -0.01999722)
(-0.045131981 0.0063499999 -0.01520674)
(-0.04651155 0.0063499999 -0.01023797)
(-0.047345821 0.0063499999 -0.005149168)
(0.050799999 0.01693585 0.001924928)
(0.050521709 0.0254 -0.005310046)
(0.050799999 0.0254 6.2212059e-18)
(0.0496899 0.0254 -0.01056191)
(0.04831367 0.0254 -0.01569806)
(0.046408109 0.0254 -0.02066222)
(0.043994091 0.0254 -0.0254)
(0.041098058 0.0254 -0.029859491)
(0.03775176 0.0254 -0.033991829)
(0.033991829 0.0254 -0.03775176)
(0.029859491 0.0254 -0.041098058)
(0.0254 0.0254 -0.043994091)
(0.02066222 0.0254 -0.046408109)
(0.01569806 0.0254 -0.04831367)
(0.01056191 0.0254 -0.0496899)
(0.005310046 0.0254 -0.050521709)
(5.1340669e-17 0.0254 -0.050799999)
(-0.005310046 0.0254 -0.050521709)
(-0.01056191 0.0254 -0.0496899)
(-0.01569806 0.0254 -0.04831367)
(-0.02066222 0.0254 -0.046408109)
(-0.0254 0.0254 -0.043994091)
(-0.029859491 0.0254 -0.041098058)
(-0.033991829 0.0254 -0.03775176)
(-0.03775176 0.0254 -0.033991829)
(-0.041098058 0.0254 -0.029859491)
(-0.043994091 0.0254 -0.0254)
(-0.046408109 0.0254 -0.02066222)
(-0.04831367 0.0254 -0.01569806)
(-0.0496899 0.0254 -0.01056191)
(-0.050521709 0.0254 -0.005310046)
(-0.050799999 0.0254 0)
(0.050799999 0.0085242046 0.0021762911)
(-0.047625002 0.0254 0)
(-0.047345821 0.0254 0.005149168)
(-0.04651155 0.0254 0.01023797)
(-0.045131981 0.0254 0.01520674)
(-0.04322328 0.0254 0.01999722)
(-0.040807821 0.0254 0.024553251)
(-0.03791393 0.0254 0.02882142)
(-0.034575541 0.0254 0.032751691)
(-0.030831769 0.0254 0.03629797)
(-0.026726531 0.0254 0.03941869)
(-0.022307949 0.0254 0.042077258)
(-0.01762783 0.0254 0.04424252)
(-0.01274104 0.0254 0.045889068)
(-0.007704868 0.0254 0.04699761)
(-0.0025783661 0.0254 0.047555149)
(0.0025783661 0.0254 0.047555149)
(0.007704868 0.0254 0.04699761)
(0.01274104 0.0254 0.045889068)
(0.01762783 0.0254 0.04424252)
(0.022307949 0.0254 0.042077258)
(0.026726531 0.0254 0.03941869)
(0.030831769 0.0254 0.03629797)
(0.034575541 0.0254 0.032751691)
(0.03791393 0.0254 0.02882142)
(0.040807821 0.0254 0.024553251)
(0.04322328 0.0254 0.01999722)
(0.045131981 0.0254 0.01520674)
(0.04651155 0.0254 0.01023797)
(0.047345821 0.0254 0.005149168)
(0.047625002 0.0254 5.8323802e-18)
(0.057811681 -0.070264786 0.0041892389)
(0.057868991 -0.070589788 0.0046719401)
(0.05785187 -0.071211837 0.0053440938)
(0.05792927 -0.070931651 0.0050839442)
(0.047345821 0.0254 -0.005149168)
(0.04651155 0.0254 -0.01023797)
(0.045131981 0.0254 -0.01520674)
(0.04322328 0.0254 -0.01999722)
(0.040807821 0.0254 -0.024553251)
(0.03791393 0.0254 -0.02882142)
(0.034575541 0.0254 -0.032751691)
(0.030831769 0.0254 -0.03629797)
(0.026726531 0.0254 -0.03941869)
(0.022307949 0.0254 -0.042077258)
(0.01762783 0.0254 -0.04424252)
(0.01274104 0.0254 -0.045889068)
(0.007704868 0.0254 -0.04699761)
(0.0025783661 0.0254 -0.047555149)
(-0.0025783661 0.0254 -0.047555149)
(-0.007704868 0.0254 -0.04699761)
(-0.01274104 0.0254 -0.045889068)
(-0.01762783 0.0254 -0.04424252)
(-0.022307949 0.0254 -0.042077258)
(-0.026726531 0.0254 -0.03941869)
(-0.030831769 0.0254 -0.03629797)
(-0.034575541 0.0254 -0.032751691)
(-0.03791393 0.0254 -0.02882142)
(-0.040807821 0.0254 -0.024553251)
(-0.04322328 0.0254 -0.01999722)
(-0.045131981 0.0254 -0.01520674)
(-0.04651155 0.0254 -0.01023797)
(-0.047345821 0.0254 -0.005149168)
(-0.050521709 0.0254 0.005310046)
(-0.0496899 0.0254 0.01056191)
(-0.04831367 0.0254 0.01569806)
(-0.046408109 0.0254 0.02066222)
(-0.043994091 0.0254 0.0254)
(-0.041098058 0.0254 0.029859491)
(-0.03775176 0.0254 0.033991829)
(-0.033991829 0.0254 0.03775176)
(-0.029859491 0.0254 0.041098058)
(-0.0254 0.0254 0.043994091)
(-0.02066222 0.0254 0.046408109)
(-0.01569806 0.0254 0.04831367)
(-0.01056191 0.0254 0.0496899)
(-0.005310046 0.0254 0.050521709)
(-1.7501071e-17 0.0254 0.050799999)
(0.005310046 0.0254 0.050521709)
(0.050521709 0.0254 0.005310046)
(0.01056191 0.0254 0.0496899)
(0.0496899 0.0254 0.01056191)
(0.01569806 0.0254 0.04831367)
(0.04831367 0.0254 0.01569806)
(0.02066222 0.0254 0.046408109)
(0.046408109 0.0254 0.02066222)
(0.0254 0.0254 0.043994091)
(0.043994091 0.0254 0.0254)
(0.029859491 0.0254 0.041098058)
(0.041098058 0.0254 0.029859491)
(0.033991829 0.0254 0.03775176)
(0.03775176 0.0254 0.033991829)
(0.050799999 0.0168758 -0.0021762911)
(0.050799999 0.0088853631 -0.003259701)
(0.042894948 -0.076287009 0.0063499999)
(0.042687099 -0.077005461 0.0062771402)
(0.04250437 -0.077698097 0.0060624601)
(0.042349249 -0.078347102 0.005717407)
(0.042223349 -0.078931682 0.0052621211)
(0.042124059 -0.079443708 0.004718102)
(0.042027339 -0.080004551 0.0038954159)
(0.041955851 -0.080476873 0.0028757639)
(0.041913591 -0.080790617 0.001790149)
(0.0418959 -0.080931343 0.00090014108)
(0.041890372 -0.080977708 2.7318909e-18)
(0.04192093 -0.080734201 -0.002035314)
(0.042001888 -0.080165587 -0.0035940921)
(0.042128898 -0.079417437 -0.0047501321)
(0.042288162 -0.078623131 -0.0055214572)
(0.042483389 -0.077781998 -0.0060264221)
(0.04267529 -0.077048413 -0.0062679541)
(0.042894948 -0.076287009 -0.0063499999)
(0.04473323 -0.071449302 5.0956762e-18)
(0.04465279 -0.071626417 -0.001692368)
(0.044419501 -0.072158411 -0.003292077)
(0.044140998 -0.072817549 -0.0044068601)
(0.04380586 -0.073653989 -0.0053125969)
(0.043520659 -0.074411817 -0.0058443872)
(0.043222811 -0.075260989 -0.0062021841)
(0.043056238 -0.075768299 -0.006312361)
(0.050410531 0.01336576 0.006278377)
(0.050401561 0.0127 0.0063499999)
(0.050435711 0.01399875 0.0060728518)
(0.05047331 0.01458318 0.0057519642)
(0.05051871 0.01510683 0.0053385799)
(0.050583441 0.01570002 0.0046856962)
(0.050654259 0.016237371 0.003845263)
(0.05066938 0.0090575228 -0.00364)
(0.050599799 0.0095676985 -0.004505456)
(0.050534379 0.01013686 -0.0051881019)
(0.050487678 0.01063669 -0.0056244531)
(0.05044686 0.01120387 -0.0059794909)
(0.050417069 0.01182494 -0.006225693)
(0.050402518 0.01248202 -0.0063423701)
(0.050657231 0.01625842 -0.00380555)
(0.05056005 0.01550013 -0.0049316389)
(0.050479949 0.01466846 -0.0056933858)
(0.050429121 0.01386684 -0.0061272769)
(0.050405689 0.01315115 -0.0063171899)
(0.050656781 0.0091447188 0.0038115249)
(0.05055945 0.0099051949 0.004937795)
(0.050479379 0.01073873 0.005698449)
(0.05042867 0.01154282 0.0061310199)
(0.050408632 0.01210929 0.0062936801)
(0.04471273 -0.071493849 0.00085469958)
(0.043222811 -0.075260989 0.0062021841)
(0.04354088 -0.074356452 0.0058129448)
(0.043844402 -0.07355509 0.005225467)
(0.044115979 -0.072878383 0.0044876621)
(0.04434656 -0.072328538 0.0036317799)
(0.044526629 -0.071911529 0.0026937081)
(0.04305505 -0.07577195 0.0063130772)
(0.044652231 -0.071627647 0.00169851)
)

// edges

303
(
(3 2)
(114 4)
(114 5)
(6 5)
(6 7)
(115 116)
(117 115)
(118 117)
(119 118)
(120 119)
(121 120)
(122 121)
(123 122)
(124 123)
(125 124)
(126 125)
(127 126)
(128 127)
(129 128)
(130 129)
(131 130)
(132 131)
(133 132)
(134 133)
(135 134)
(136 135)
(137 136)
(138 137)
(139 138)
(140 139)
(141 140)
(142 141)
(143 142)
(144 143)
(145 144)
(146 11)
(147 148)
(148 149)
(149 150)
(150 151)
(151 152)
(152 153)
(153 154)
(154 155)
(155 156)
(156 157)
(157 158)
(158 159)
(159 160)
(160 161)
(161 162)
(162 163)
(163 164)
(164 165)
(165 166)
(166 167)
(167 168)
(168 169)
(169 170)
(170 171)
(171 172)
(172 173)
(173 174)
(174 175)
(175 176)
(177 178)
(179 180)
(176 181)
(181 182)
(182 183)
(183 184)
(184 185)
(185 186)
(186 187)
(187 188)
(188 189)
(189 190)
(190 191)
(191 192)
(192 193)
(193 194)
(194 195)
(195 196)
(196 197)
(197 198)
(198 199)
(199 200)
(200 201)
(201 202)
(202 203)
(203 204)
(204 205)
(205 206)
(206 207)
(207 208)
(208 147)
(145 209)
(209 210)
(210 211)
(211 212)
(212 213)
(213 214)
(214 215)
(215 216)
(216 217)
(217 218)
(218 219)
(219 220)
(220 221)
(221 222)
(222 223)
(223 224)
(225 116)
(224 226)
(227 225)
(226 228)
(229 227)
(228 230)
(231 229)
(230 232)
(233 231)
(232 234)
(235 233)
(234 236)
(236 237)
(237 235)
(238 10)
(239 9)
(1 9)
(1 8)
(2 8)
(240 241)
(241 242)
(242 243)
(243 244)
(244 245)
(245 246)
(246 247)
(247 248)
(248 249)
(249 250)
(250 251)
(251 252)
(252 253)
(253 254)
(254 255)
(255 256)
(256 257)
(2 1)
(258 259)
(259 260)
(260 261)
(261 262)
(262 263)
(263 264)
(265 257)
(264 265)
(266 267)
(268 266)
(269 268)
(270 269)
(271 270)
(272 271)
(4 272)
(5 4)
(7 5)
(6 0)
(0 7)
(8 3)
(9 8)
(0 10)
(273 9)
(274 273)
(275 274)
(276 275)
(277 276)
(278 277)
(279 278)
(10 280)
(280 281)
(281 282)
(282 283)
(283 284)
(284 279)
(11 3)
(285 11)
(286 285)
(287 286)
(288 287)
(289 288)
(267 289)
(290 258)
(291 292)
(292 293)
(293 294)
(294 295)
(295 296)
(297 291)
(240 297)
(296 298)
(298 290)
(12 13)
(13 14)
(14 15)
(15 16)
(16 17)
(17 18)
(18 19)
(19 20)
(20 21)
(21 22)
(22 23)
(23 24)
(24 25)
(25 26)
(26 27)
(27 28)
(28 29)
(29 30)
(30 31)
(31 32)
(32 33)
(33 34)
(35 36)
(37 35)
(38 37)
(39 38)
(40 39)
(41 40)
(42 41)
(43 42)
(44 43)
(45 44)
(46 45)
(47 46)
(48 47)
(49 48)
(50 49)
(51 50)
(52 51)
(53 52)
(54 53)
(55 54)
(56 55)
(57 56)
(58 57)
(59 58)
(60 59)
(61 60)
(62 61)
(63 62)
(64 63)
(34 65)
(65 66)
(66 67)
(67 68)
(68 69)
(69 70)
(70 71)
(71 72)
(72 73)
(73 74)
(74 75)
(75 76)
(76 77)
(77 78)
(78 79)
(79 80)
(80 81)
(81 82)
(82 83)
(83 84)
(84 85)
(85 12)
(86 64)
(87 86)
(88 87)
(89 88)
(90 89)
(91 90)
(92 91)
(93 92)
(94 93)
(95 94)
(96 95)
(97 96)
(98 97)
(99 98)
(100 99)
(101 100)
(102 101)
(103 102)
(104 103)
(105 104)
(106 105)
(107 106)
(108 107)
(109 108)
(110 109)
(111 110)
(112 111)
(113 112)
(36 113)
)

// concaveStart mixedStart nonFeatureStart
0 1 12
// internalStart flatStart openStart multipleStart
131 201 201 303
// normals

485
(
(0.87349546 -0.48280715 -0.062473454)
(0.85581546 -0.48261721 -0.18617338)
(0.82067755 -0.48248693 -0.30609593)
(0.76863344 -0.48275366 -0.4197041)
(0.70104538 -0.48283027 -0.52479549)
(0.61926795 -0.48271567 -0.61926795)
(0.52493429 -0.48240995 -0.70123079)
(0.41972607 -0.48267051 -0.76867367)
(0.30603123 -0.48282288 -0.82050409)
(0.18615379 -0.48278444 -0.8557254)
(0.062483356 -0.48255531 -0.87363391)
(-0.062483356 -0.48255531 -0.87363391)
(-0.18615379 -0.48278444 -0.8557254)
(-0.30603123 -0.48282288 -0.82050409)
(-0.41972607 -0.48267051 -0.76867367)
(-0.52493429 -0.48240995 -0.70123079)
(-0.61926795 -0.48271567 -0.61926795)
(-0.70104538 -0.48283027 -0.52479549)
(-0.76863344 -0.48275366 -0.4197041)
(-0.82067755 -0.48248693 -0.30609593)
(-0.85581546 -0.48261721 -0.18617338)
(-0.87349546 -0.48280715 -0.062473454)
(0.9985334 0 -0.054139089)
(0.98682638 0 -0.16178285)
(0.96355019 0 -0.26752761)
(0.92897678 0 -0.37013801)
(0.88351162 0 -0.46840925)
(0.82768895 0 -0.56118714)
(0.76216329 0 -0.64738483)
(0.68769846 0 -0.72599644)
(0.60517414 0 -0.79609312)
(0.51555327 0 -0.85685753)
(0.41989035 0 -0.90757484)
(0.3193011 0 -0.94765332)
(0.21496983 0 -0.97662069)
(0.10811853 0 -0.99413801)
(0 -0 -1)
(-0.10811853 -0 -0.99413801)
(-0.21496983 -0 -0.97662069)
(-0.3193011 -0 -0.94765332)
(-0.41989035 -0 -0.90757484)
(-0.51555327 -0 -0.85685753)
(-0.60517414 -0 -0.79609312)
(-0.68769846 -0 -0.72599644)
(-0.76216329 -0 -0.64738483)
(-0.82768895 -0 -0.56118714)
(-0.88351162 -0 -0.46840925)
(-0.92897678 -0 -0.37013801)
(-0.96355019 -0 -0.26752761)
(-0.98682638 -0 -0.16178285)
(-0.9985334 5.5251038e-18 -0.054139089)
(-0.87349546 -0.48280715 0.062473454)
(-0.85581546 -0.48261721 0.18617338)
(-0.82067755 -0.48248693 0.30609593)
(-0.76863344 -0.48275366 0.4197041)
(-0.70104538 -0.48283027 0.52479549)
(-0.61926795 -0.48271567 0.61926795)
(-0.52493429 -0.48240995 0.70123079)
(-0.41972607 -0.48267051 0.76867367)
(-0.30603123 -0.48282288 0.82050409)
(-0.18615379 -0.48278444 0.8557254)
(-0.062483356 -0.48255531 0.87363391)
(0.062483356 -0.48255531 0.87363391)
(0.18615379 -0.48278444 0.8557254)
(0.30603123 -0.48282288 0.82050409)
(0.41972607 -0.48267051 0.76867367)
(0.52493429 -0.48240995 0.70123079)
(0.61926795 -0.48271567 0.61926795)
(0.70104538 -0.48283027 0.52479549)
(0.76863344 -0.48275366 0.4197041)
(0.82067755 -0.48248693 0.30609593)
(0.85581546 -0.48261721 0.18617338)
(0.87349546 -0.48280715 0.062473454)
(-0.9985334 0 0.054139089)
(-0.98682638 0 0.16178285)
(-0.96355019 0 0.26752761)
(-0.92897678 0 0.37013801)
(-0.88351162 0 0.46840925)
(-0.82768895 0 0.56118714)
(-0.76216329 0 0.64738483)
(-0.68769846 0 0.72599644)
(-0.60517414 0 0.79609312)
(-0.51555327 0 0.85685753)
(-0.41989035 0 0.90757484)
(-0.3193011 0 0.94765332)
(-0.21496983 0 0.97662069)
(-0.10811853 0 0.99413801)
(0 0 1)
(0.10811853 0 0.99413801)
(0.21496983 0 0.97662069)
(0.3193011 0 0.94765332)
(0.41989035 0 0.90757484)
(0.51555327 0 0.85685753)
(0.60517414 0 0.79609312)
(0.68769846 0 0.72599644)
(0.76216329 0 0.64738483)
(0.82768895 0 0.56118714)
(0.88351162 0 0.46840925)
(0.92897678 0 0.37013801)
(0.96355019 0 0.26752761)
(0.98682638 0 0.16178285)
(0.9985334 5.5251056e-18 0.054139089)
(0.00052264867 -0.99861747 -0.052563073)
(-0.8689876 -0.4941498 -0.026009992)
(0.26973682 0.9182961 0.28978324)
(-0.42192524 0.87945957 0.22029517)
(0.40523797 0.9022753 0.14724627)
(-0.43706905 0.89224149 0.11347144)
(0.66274999 0.74780562 0.039359913)
(0.99859931 0.0077773738 -0.052334869)
(0 1 0)
(0.9876824 0.0035071722 -0.15643264)
(0 1 0)
(0.96592568 0 -0.25881958)
(0 1 0)
(0.93358055 0 -0.35836764)
(0 1 0)
(0.89100662 0 -0.4539903)
(0 1 0)
(0.83867006 0 -0.54463982)
(0 1 0)
(0.77714627 0 -0.62932001)
(0 1 0)
(0.70710678 0 -0.70710678)
(0 1 0)
(0.62932001 0 -0.77714627)
(0 1 0)
(0.54463982 0 -0.83867006)
(0 1 0)
(0.4539903 0 -0.89100662)
(0 1 0)
(0.35836764 0 -0.93358055)
(0 1 0)
(0.25881958 0 -0.96592568)
(0 1 0)
(0.1564336 0 -0.98768848)
(0 1 0)
(0.052336452 0 -0.99862951)
(0 1 0)
(-0.052336452 -6.2715184e-18 -0.99862951)
(0 1 0)
(-0.1564336 0 -0.98768848)
(0 1 0)
(-0.25881958 0 -0.96592568)
(0 1 0)
(-0.35836764 0 -0.93358055)
(0 1 0)
(-0.4539903 0 -0.89100662)
(0 1 0)
(-0.54463982 0 -0.83867006)
(0 1 0)
(-0.62932001 0 -0.77714627)
(0 1 0)
(-0.70710678 0 -0.70710678)
(0 1 0)
(-0.77714627 0 -0.62932001)
(0 1 0)
(-0.83867006 0 -0.54463982)
(0 1 0)
(-0.89100662 0 -0.4539903)
(0 1 0)
(-0.93358055 0 -0.35836764)
(0 1 0)
(-0.96592568 0 -0.25881958)
(0 1 0)
(-0.98768848 -0 -0.1564336)
(0 1 0)
(-0.99862951 0 -0.052336452)
(0 1 0)
(0.31805173 -0.94090214 0.11638837)
(-0.26309773 -0.90942896 0.32205363)
(0.9985334 -4.3112268e-18 -0.054139089)
(0 1 0)
(0.98682638 0 -0.16178285)
(0 1 0)
(0.96355019 0 -0.26752761)
(0 1 0)
(0.92897678 0 -0.37013801)
(0 1 0)
(0.88351162 0 -0.46840925)
(0 1 0)
(0.82768895 0 -0.56118714)
(0 1 0)
(0.76216329 0 -0.64738483)
(0 1 0)
(0.68769846 0 -0.72599644)
(0 1 0)
(0.60517414 0 -0.79609312)
(0 1 0)
(0.51555327 0 -0.85685753)
(0 1 0)
(0.41989035 0 -0.90757484)
(0 1 0)
(0.3193011 0 -0.94765332)
(0 1 0)
(0.21496983 0 -0.97662069)
(0 1 0)
(0.10811853 0 -0.99413801)
(0 1 0)
(-0 0 -1)
(0 1 0)
(-0.10811853 0 -0.99413801)
(0 1 0)
(-0.21496983 0 -0.97662069)
(0 1 0)
(-0.3193011 0 -0.94765332)
(0 1 0)
(-0.41989035 0 -0.90757484)
(0 1 0)
(-0.51555327 0 -0.85685753)
(0 1 0)
(-0.60517414 0 -0.79609312)
(0 1 0)
(-0.68769846 0 -0.72599644)
(0 1 0)
(-0.76216329 0 -0.64738483)
(0 1 0)
(-0.82768895 0 -0.56118714)
(0 1 0)
(-0.88351162 0 -0.46840925)
(0 1 0)
(-0.92897678 0 -0.37013801)
(0 1 0)
(-0.96355019 0 -0.26752761)
(0 1 0)
(-0.98682638 0 -0.16178285)
(0 1 0)
(-0.9985334 0 -0.054139089)
(0 1 0)
(0.24565616 0.81734595 0.52115128)
(-0.45966077 0.71043608 0.53290952)
(-0.38076905 0.68346035 0.62281368)
(0.13249109 0.65451713 0.74434766)
(-0.9985334 -6.4668402e-18 0.054139089)
(0 1 0)
(-0.98682638 0 0.16178285)
(0 1 0)
(-0.96355019 0 0.26752761)
(0 1 0)
(-0.92897678 0 0.37013801)
(0 1 0)
(-0.88351162 0 0.46840925)
(0 1 0)
(-0.82768895 0 0.56118714)
(0 1 0)
(-0.76216329 0 0.64738483)
(0 1 0)
(-0.68769846 0 0.72599644)
(0 1 0)
(-0.60517414 0 0.79609312)
(0 1 0)
(-0.51555327 0 0.85685753)
(0 1 0)
(-0.41989035 0 0.90757484)
(0 1 0)
(-0.3193011 0 0.94765332)
(0 1 0)
(-0.21496983 0 0.97662069)
(0 1 0)
(-0.10811853 0 0.99413801)
(0 1 0)
(-0 0 1)
(0 1 0)
(0.10811853 0 0.99413801)
(0 1 0)
(0.21496983 0 0.97662069)
(0 1 0)
(0.3193011 0 0.94765332)
(0 1 0)
(0.41989035 0 0.90757484)
(0 1 0)
(0.51555327 0 0.85685753)
(0 1 0)
(0.60517414 0 0.79609312)
(0 1 0)
(0.68769846 0 0.72599644)
(0 1 0)
(0.76216329 0 0.64738483)
(0 1 0)
(0.82768895 0 0.56118714)
(0 1 0)
(0.88351162 0 0.46840925)
(0 1 0)
(0.92897678 0 0.37013801)
(0 1 0)
(0.96355019 0 0.26752761)
(0 1 0)
(0.98682638 0 0.16178285)
(0 1 0)
(0.9985334 0 0.054139089)
(0 1 0)
(0 1 0)
(-0.99862951 0 0.052336452)
(0 1 0)
(-0.98768848 0 0.1564336)
(0 1 0)
(-0.96592568 0 0.25881958)
(0 1 0)
(-0.93358055 0 0.35836764)
(0 1 0)
(-0.89100662 0 0.4539903)
(0 1 0)
(-0.83867006 0 0.54463982)
(0 1 0)
(-0.77714627 0 0.62932001)
(0 1 0)
(-0.70710678 0 0.70710678)
(0 1 0)
(-0.62932001 0 0.77714627)
(0 1 0)
(-0.54463982 0 0.83867006)
(0 1 0)
(-0.4539903 0 0.89100662)
(0 1 0)
(-0.35836764 0 0.93358055)
(0 1 0)
(-0.25881958 0 0.96592568)
(0 1 0)
(-0.1564336 0 0.98768848)
(0 1 0)
(-0.052336452 0 0.99862951)
(0 1 0)
(0.052336452 6.2715184e-18 0.99862951)
(0 1 0)
(0.99859861 0.007866964 0.052334832)
(0 1 0)
(0.1564336 0 0.98768848)
(0 1 0)
(0.98768256 0.0034626582 0.15643266)
(0 1 0)
(0.25881958 0 0.96592568)
(0 1 0)
(0.96592568 0 0.25881958)
(0 1 0)
(0.35836764 0 0.93358055)
(0 1 0)
(0.93358055 0 0.35836764)
(0 1 0)
(0.4539903 0 0.89100662)
(0 1 0)
(0.89100662 0 0.4539903)
(0 1 0)
(0.54463982 0 0.83867006)
(0 1 0)
(0.83867006 0 0.54463982)
(0 1 0)
(0.62932001 0 0.77714627)
(0 1 0)
(0.70710678 0 0.70710678)
(0 1 0)
(0.77714627 0 0.62932001)
(0.32857615 0.93733366 -0.11594535)
(-0.27045787 0.90787896 -0.32032536)
(-0.15242377 -0.91897542 -0.36366354)
(0.38869547 -0.87865505 -0.27727448)
(-0.55636424 -0.8129222 -0.17209398)
(0.5979422 -0.79107433 -0.1290989)
(0.027667575 -0.10877551 0.99368123)
(0.94695961 -0.28834314 0.1418652)
(0.047251989 -0.30707382 0.95051193)
(0.94546056 -0.29332971 0.14164045)
(0.074778872 -0.48200216 0.8729731)
(0.93638498 -0.31065028 0.16333885)
(0.10036786 -0.62471779 0.77437328)
(0.92022849 -0.34382198 0.1869919)
(0.12472704 -0.73376842 0.66785258)
(0.93035203 -0.33611024 0.14654351)
(0.14791707 -0.82518299 0.54515464)
(0.93375905 -0.33716014 0.12007109)
(0.1717646 -0.89843074 0.40412762)
(0.93668506 -0.33815114 0.09096654)
(0.16034946 -0.94990182 0.26828079)
(0.94051809 -0.33439815 0.060029933)
(0.16799237 -0.97420129 0.15069976)
(0.94160536 -0.33497223 0.034248202)
(0.17961654 -0.98249036 0.049503517)
(0.94159049 -0.33656186 0.011552916)
(0.15534599 -0.98113743 -0.11505203)
(0.94215634 -0.33417653 -0.025835569)
(0.16726913 -0.92897693 -0.33018616)
(0.93916777 -0.33548027 -0.073599588)
(0.1309754 -0.83879881 -0.52845246)
(0.93387595 -0.3381731 -0.11625255)
(0.1064272 -0.70359647 -0.7025847)
(0.90662152 -0.37311583 -0.19703297)
(0.071116628 -0.52548771 -0.84782374)
(0.93438512 -0.31583364 -0.16484403)
(0.037140586 -0.32127068 -0.94625881)
(0.94529033 -0.293901 -0.14159233)
(-0.0032024876 -0.10622176 -0.99433731)
(0.94692721 -0.2884633 -0.14183714)
(-0.00038668147 -0.98694393 -0.16106372)
(0.964646 -0.26291043 -0.018335775)
(-0.15568222 0.9831804 -0.095495242)
(0.96425132 -0.25935177 -0.054369604)
(-0.17961604 0.94101742 -0.28674778)
(0.96239148 -0.25681879 -0.088581905)
(-0.12750283 0.8673938 -0.48101043)
(0.95788912 -0.26556948 -0.10918463)
(-0.14864801 0.75329763 -0.64066094)
(0.95474227 -0.26620048 -0.13268192)
(-0.11244231 0.59877647 -0.7929839)
(0.95078532 -0.26787356 -0.15572741)
(-0.13087919 0.42358232 -0.89635298)
(0.94538323 -0.28211384 -0.16328603)
(-0.013496386 0.076539808 -0.99697518)
(0.9466652 -0.27401365 -0.16953322)
(-0.038800869 0.22422106 -0.97376558)
(0 0.10696336 0.99426296)
(0.98770185 0.0035075416 0.15630981)
(-0.0081900088 0.30910362 0.9509931)
(0.99227169 0.00081714051 0.12408155)
(-0.02612576 0.48241325 0.87555406)
(0.99313428 0.0003354653 0.11697946)
(-0.041448634 0.62130136 0.78247468)
(0.9940214 1.3071903e-05 0.1091854)
(-0.075078395 0.74173681 0.66647561)
(0.99512247 -1.6461968e-05 0.098647212)
(-0.10965204 0.8415983 0.52885607)
(0.99641992 0.00090000264 0.084537182)
(-0.14805738 0.90758386 0.39290017)
(0.99766239 0.0035225737 0.068244696)
(0.99889536 0.0059489676 0.046611969)
(0.99969879 0.001624431 0.024488779)
(0.00052266494 0.99861757 0.05256112)
(0.99996665 -6.1545353e-18 0.0081665332)
(0.9999082 -2.5066388e-18 -0.013549855)
(0.9991811 -0.0010939703 -0.040446692)
(0.99979475 1.4796819e-17 -0.020259769)
(0.99801301 -0.0012238391 -0.062996244)
(0.99676582 -0.00037691776 -0.080360218)
(-0.10959089 -0.86010306 -0.49820936)
(0.99543726 -2.7469915e-05 -0.095418371)
(-0.06995765 -0.76946608 -0.63484477)
(0.99432291 1.0626701e-05 -0.10640468)
(-0.015221038 -0.65838126 -0.75253069)
(0.99344525 -5.9164134e-05 -0.11430897)
(0.0250355 -0.52912878 -0.84817213)
(0.99270582 -0.00017503238 -0.12056173)
(-0.020813598 -0.36929944 -0.92907735)
(0.99009936 -0.0029937138 -0.14033636)
(-0.03578704 -0.17549034 -0.98383049)
(0.99821094 0.0049924876 -0.059581852)
(0.99626442 0.00055766044 -0.086353295)
(-0.051329033 0.830423 -0.55476389)
(0.99453255 -0.00013988413 -0.10442695)
(-0.057238326 0.67731205 -0.73346586)
(0.99314168 0.0003116726 -0.11691669)
(-0.019135922 0.47686285 -0.87876939)
(0.99202404 0.00096747528 -0.12604508)
(-0.030831639 0.25730124 -0.96583926)
(0.98674613 0.0014312063 -0.1622653)
(-0.039876085 0.03776333 -0.99849078)
(0.99979387 3.7531193e-18 0.020303335)
(0.99829564 -0.001372506 0.058343211)
(-0.046983213 -0.82972857 0.55618619)
(0.99627764 -0.00015611109 0.086202309)
(-0.054419889 -0.67592435 0.73495902)
(0.99450969 4.0229446e-05 0.10464448)
(-0.016314502 -0.47449436 0.88010735)
(0.99317971 -8.9751483e-05 0.11659353)
(0.0033661312 -0.27588265 0.96118543)
(0.99239723 -0.0002357798 0.12307595)
(-0.0033334159 -0.094951279 0.99547634)
(0.98909917 -0.0021985453 0.14723451)
(0.97227119 -0.23359049 0.011145511)
(-0.17958748 0.98262306 0.046906936)
(0.9509476 -0.26760173 0.155203)
(-0.14606469 0.43392727 0.88902881)
(0.95511465 -0.26564898 0.13109779)
(-0.10093364 0.61280459 0.78376204)
(0.95799567 -0.26504037 0.10953497)
(-0.11067879 0.75239434 0.64934811)
(0.9614113 -0.25907172 0.092575089)
(-0.16278382 0.84948183 0.50187852)
(0.96224317 -0.26369197 0.06748799)
(-0.10815066 0.91596044 0.38641935)
(0.94671638 -0.27414499 0.16903439)
(-0.039092026 0.22416976 0.97376575)
(0.94540439 -0.28218328 0.16304335)
(-0.013334134 0.075619655 0.99704758)
(0.96381385 -0.26243957 0.046779598)
(-0.16341763 0.95396276 0.25149499)
(0.96438004 -0.26309497 0.027425942)
(-0.12510862 0.98124935 0.1466204)
)

// normal volume types

485
(
0
0
0
0
0
0
0
0
0
0
0
0
0
0
0
0
0
0
0
0
0
0
0
0
0
0
0
0
0
0
0
0
0
0
0
0
0
0
0
0
0
0
0
0
0
0
0
0
0
0
0
0
0
0
0
0
0
0
0
0
0
0
0
0
0
0
0
0
0
0
0
0
0
0
0
0
0
0
0
0
0
0
0
0
0
0
0
0
0
0
0
0
0
0
0
0
0
0
0
0
0
0
0
0
0
0
0
0
0
0
0
0
0
0
0
0
0
0
0
0
0
0
0
0
0
0
0
0
0
0
0
0
0
0
0
0
0
0
0
0
0
0
0
0
0
0
0
0
0
0
0
0
0
0
0
0
0
0
0
0
0
0
0
0
0
0
0
0
0
0
0
0
0
0
0
0
0
0
0
0
0
0
0
0
0
0
0
0
0
0
0
0
0
0
0
0
0
0
0
0
0
0
0
0
0
0
0
0
0
0
0
0
0
0
0
0
0
0
0
0
0
0
0
0
0
0
0
0
0
0
0
0
0
0
0
0
0
0
0
0
0
0
0
0
0
0
0
0
0
0
0
0
0
0
0
0
0
0
0
0
0
0
0
0
0
0
0
0
0
0
0
0
0
0
0
0
0
0
0
0
0
0
0
0
0
0
0
0
0
0
0
0
0
0
0
0
0
0
0
0
0
0
0
0
0
0
0
0
0
0
0
0
0
0
0
0
0
0
0
0
0
0
0
0
0
0
0
0
0
0
0
0
0
0
0
0
0
0
0
0
0
0
0
0
0
0
0
0
0
0
0
0
0
0
0
0
0
0
0
0
0
0
0
0
0
0
0
0
0
0
0
0
0
0
0
0
0
0
0
0
0
0
0
0
0
0
0
0
0
0
0
0
0
0
0
0
0
0
0
0
0
0
0
0
0
0
0
0
0
0
0
0
0
0
0
0
0
0
0
0
0
0
0
0
0
0
0
0
0
0
0
0
0
0
0
0
0
0
0
0
0
0
0
0
0
0
0
0
0
0
0
0
0
0
0
0
0
0
0
0
0
0
0
0
0
0
0
0
0
0
0
0
0
0
0
0
0
0
0
0
0
0
0
0
0
)

// normalDirections

303
(
2(1 -1)
2(1 -1)
2(1 -1)
2(1 -1)
2(1 -1)
2(1 -1)
2(1 -1)
2(1 -1)
2(1 -1)
2(1 -1)
2(1 -1)
2(1 -1)
2(1 -1)
2(1 -1)
2(1 -1)
2(1 -1)
2(1 -1)
2(1 -1)
2(1 -1)
2(1 -1)
2(1 -1)
2(1 -1)
2(1 -1)
2(1 -1)
2(1 -1)
2(1 -1)
2(1 -1)
2(1 -1)
2(1 -1)
2(1 -1)
2(1 -1)
2(1 -1)
2(1 -1)
2(1 -1)
2(1 -1)
2(1 -1)
2(1 -1)
2(1 -1)
2(1 -1)
2(1 -1)
2(1 -1)
2(1 -1)
2(1 -1)
2(1 -1)
2(1 -1)
2(1 -1)
2(1 -1)
2(1 -1)
2(1 -1)
2(1 -1)
2(1 -1)
2(1 -1)
2(1 -1)
2(1 -1)
2(1 -1)
2(1 -1)
2(1 -1)
2(1 -1)
2(1 -1)
2(1 -1)
2(1 -1)
2(1 -1)
2(1 -1)
2(1 -1)
2(1 -1)
2(1 -1)
2(1 -1)
2(1 -1)
2(1 -1)
2(1 -1)
2(1 -1)
2(1 -1)
2(1 -1)
2(1 -1)
2(1 -1)
2(1 -1)
2(1 -1)
2(1 -1)
2(1 -1)
2(1 -1)
2(1 -1)
2(1 -1)
2(1 -1)
2(1 -1)
2(1 -1)
2(1 -1)
2(1 -1)
2(1 -1)
2(1 -1)
2(1 -1)
2(1 -1)
2(1 -1)
2(1 -1)
2(1 -1)
2(1 -1)
2(1 -1)
2(1 -1)
2(1 -1)
2(1 -1)
2(1 -1)
2(1 -1)
2(1 -1)
2(1 -1)
2(1 -1)
2(1 -1)
2(1 -1)
2(1 -1)
2(1 -1)
2(1 -1)
2(1 -1)
2(1 -1)
2(1 -1)
2(1 -1)
2(1 -1)
2(1 -1)
2(1 -1)
2(1 -1)
2(1 -1)
2(1 -1)
2(1 -1)
2(1 -1)
2(1 -1)
2(1 -1)
2(1 -1)
2(1 -1)
2(1 -1)
2(1 -1)
2(1 -1)
2(1 -1)
2(1 -1)
2(1 -1)
2(1 -1)
2(1 -1)
2(1 -1)
2(1 -1)
2(1 -1)
2(1 -1)
2(1 -1)
2(1 -1)
2(1 -1)
2(1 -1)
2(1 -1)
2(1 -1)
2(1 -1)
2(1 -1)
2(1 -1)
2(1 -1)
2(1 -1)
2(1 -1)
2(1 -1)
2(1 -1)
2(1 -1)
2(1 -1)
2(1 -1)
2(1 -1)
2(1 -1)
2(1 -1)
2(1 -1)
2(1 -1)
2(1 -1)
2(1 -1)
2(1 -1)
2(1 -1)
2(1 -1)
2(1 -1)
2(1 -1)
2(1 -1)
2(1 -1)
2(1 -1)
2(1 -1)
2(1 -1)
2(1 -1)
2(1 -1)
2(1 -1)
2(1 -1)
2(1 -1)
2(1 -1)
2(1 -1)
2(1 -1)
2(1 -1)
2(1 -1)
2(1 -1)
2(1 -1)
2(1 -1)
2(1 -1)
2(1 -1)
2(1 -1)
2(1 -1)
2(1 -1)
2(1 -1)
2(1 -1)
2(1 -1)
2(1 -1)
2(1 -1)
2(1 -1)
2(1 -1)
2(1 -1)
2(1 -1)
2(1 -1)
2(1 -1)
2(1 -1)
1(1)