/*--------------------------------*- C++ -*----------------------------------*\
| =========                 |                                                 |
| \\      /  F ield         | OpenFOAM: The Open Source CFD Toolbox           |
|  \\    /   O peration     | Version:  2112                                  |
|   \\  /    A nd           | Website:  www.openfoam.com                      |
|    \\/     M anipulation  |                                                 |
\*---------------------------------------------------------------------------*/
FoamFile
{
    version     2.0;
    format      ascii;
    arch        "LSB;label=32;scalar=64";
    class       extendedFeatureEdgeMesh;
    location    "constant/extendedFeatureEdgeMesh";
    object      tea.extendedFeatureEdgeMesh;
}
// * * * * * * * * * * * * * * * * * * * * * * * * * * * * * * * * * * * * * //

// points

178
(
(-0.047625002 0.0063499999 1.9441269e-18)
(0.047625002 0.0063499999 3.8882539e-18)
(-0.047395669 0.0063499999 -0.0046680658)
(-0.046709899 0.0063499999 -0.0092911767)
(-0.045574281 0.0063499999 -0.01382481)
(-0.043999761 0.0063499999 -0.018225299)
(-0.042001501 0.0063499999 -0.02245027)
(-0.039598741 0.0063499999 -0.026459031)
(-0.036814619 0.0063499999 -0.03021298)
(-0.033675961 0.0063499999 -0.033675961)
(-0.03021298 0.0063499999 -0.036814619)
(-0.026459031 0.0063499999 -0.039598741)
(-0.02245027 0.0063499999 -0.042001501)
(-0.018225299 0.0063499999 -0.043999761)
(-0.01382481 0.0063499999 -0.045574281)
(-0.0092911767 0.0063499999 -0.046709899)
(-0.0046680658 0.0063499999 -0.047395669)
(9.2569908e-17 0.0063499999 -0.047625002)
(0.0046680658 0.0063499999 -0.047395669)
(0.0092911767 0.0063499999 -0.046709899)
(0.01382481 0.0063499999 -0.045574281)
(0.018225299 0.0063499999 -0.043999761)
(0.02245027 0.0063499999 -0.042001501)
(0.026459031 0.0063499999 -0.039598741)
(0.03021298 0.0063499999 -0.036814619)
(0.033675961 0.0063499999 -0.033675961)
(0.036814619 0.0063499999 -0.03021298)
(0.039598741 0.0063499999 -0.026459031)
(0.042001501 0.0063499999 -0.02245027)
(0.043999761 0.0063499999 -0.018225299)
(0.045574281 0.0063499999 -0.01382481)
(0.046709899 0.0063499999 -0.0092911767)
(0.047395669 0.0063499999 -0.0046680658)
(0.046709899 0.0063499999 0.0092911767)
(0.047395669 0.0063499999 0.0046680658)
(0.045574281 0.0063499999 0.01382481)
(0.043999761 0.0063499999 0.018225299)
(0.042001501 0.0063499999 0.02245027)
(0.039598741 0.0063499999 0.026459031)
(0.036814619 0.0063499999 0.03021298)
(0.033675961 0.0063499999 0.033675961)
(0.03021298 0.0063499999 0.036814619)
(0.026459031 0.0063499999 0.039598741)
(0.02245027 0.0063499999 0.042001501)
(0.018225299 0.0063499999 0.043999761)
(0.01382481 0.0063499999 0.045574281)
(0.0092911767 0.0063499999 0.046709899)
(0.0046680658 0.0063499999 0.047395669)
(1.745591e-17 0.0063499999 0.047625002)
(-0.0046680658 0.0063499999 0.047395669)
(-0.0092911767 0.0063499999 0.046709899)
(-0.01382481 0.0063499999 0.045574281)
(-0.02245027 0.0063499999 0.042001501)
(-0.018225299 0.0063499999 0.043999761)
(-0.026459031 0.0063499999 0.039598741)
(-0.03021298 0.0063499999 0.036814619)
(-0.033675961 0.0063499999 0.033675961)
(-0.039598741 0.0063499999 0.026459031)
(-0.036814619 0.0063499999 0.03021298)
(-0.042001501 0.0063499999 0.02245027)
(-0.043999761 0.0063499999 0.018225299)
(-0.045574281 0.0063499999 0.01382481)
(-0.046709899 0.0063499999 0.0092911767)
(-0.047395669 0.0063499999 0.0046680658)
(0.047433279 0.0063499999 -0.0042690719)
(0.046859652 0.0063499999 -0.0085037723)
(0.04590873 0.0063499999 -0.01267)
(0.04458819 0.0063499999 -0.016734229)
(0.042908639 0.0063499999 -0.02066371)
(0.040883619 0.0063499999 -0.024426829)
(0.03852943 0.0063499999 -0.027993269)
(0.035865031 0.0063499999 -0.031334329)
(0.032911859 0.0063499999 -0.034423109)
(0.0296937 0.0063499999 -0.03723472)
(0.026236471 0.0063499999 -0.039746549)
(0.022568 0.0063499999 -0.041938361)
(0.01871782 0.0063499999 -0.043792509)
(0.01471693 0.0063499999 -0.045294069)
(0.01059756 0.0063499999 -0.046430942)
(0.0063928589 0.0063499999 -0.047193982)
(0.002136688 0.0063499999 -0.047577038)
(-0.002136688 0.0063499999 -0.047577038)
(-0.0063928589 0.0063499999 -0.047193982)
(-0.01059756 0.0063499999 -0.046430942)
(-0.01471693 0.0063499999 -0.045294069)
(-0.01871782 0.0063499999 -0.043792509)
(-0.022568 0.0063499999 -0.041938361)
(-0.026236471 0.0063499999 -0.039746549)
(-0.0296937 0.0063499999 -0.03723472)
(-0.032911859 0.0063499999 -0.034423109)
(-0.035865031 0.0063499999 -0.031334329)
(-0.03852943 0.0063499999 -0.027993269)
(-0.040883619 0.0063499999 -0.024426829)
(-0.042908639 0.0063499999 -0.02066371)
(-0.04458819 0.0063499999 -0.016734229)
(-0.04590873 0.0063499999 -0.01267)
(-0.046859652 0.0063499999 -0.0085037723)
(-0.047433279 0.0063499999 -0.0042690719)
(-0.047433279 0.0063499999 0.0042690719)
(-0.046859652 0.0063499999 0.0085037723)
(-0.04590873 0.0063499999 0.01267)
(-0.04458819 0.0063499999 0.016734229)
(-0.042908639 0.0063499999 0.02066371)
(-0.040883619 0.0063499999 0.024426829)
(-0.03852943 0.0063499999 0.027993269)
(-0.035865031 0.0063499999 0.031334329)
(-0.032911859 0.0063499999 0.034423109)
(-0.0296937 0.0063499999 0.03723472)
(-0.026236471 0.0063499999 0.039746549)
(-0.022568 0.0063499999 0.041938361)
(-0.01871782 0.0063499999 0.043792509)
(-0.01471693 0.0063499999 0.045294069)
(-0.01059756 0.0063499999 0.046430942)
(-0.0063928589 0.0063499999 0.047193982)
(-0.002136688 0.0063499999 0.047577038)
(0.002136688 0.0063499999 0.047577038)
(0.0063928589 0.0063499999 0.047193982)
(0.01059756 0.0063499999 0.046430942)
(0.01471693 0.0063499999 0.045294069)
(0.01871782 0.0063499999 0.043792509)
(0.022568 0.0063499999 0.041938361)
(0.026236471 0.0063499999 0.039746549)
(0.0296937 0.0063499999 0.03723472)
(0.032911859 0.0063499999 0.034423109)
(0.035865031 0.0063499999 0.031334329)
(0.03852943 0.0063499999 0.027993269)
(0.040883619 0.0063499999 0.024426829)
(0.042908639 0.0063499999 0.02066371)
(0.04458819 0.0063499999 0.016734229)
(0.04590873 0.0063499999 0.01267)
(0.046859652 0.0063499999 0.0085037723)
(0.047433279 0.0063499999 0.0042690719)
(-0.025135189 -0.111125 4.4552758e-18)
(-0.024901081 -0.111125 -0.0034225739)
(-0.02420311 -0.111125 -0.0067813918)
(-0.023054279 -0.111125 -0.01001389)
(-0.021475989 -0.111125 -0.01305984)
(-0.01949765 -0.111125 -0.01586251)
(-0.0171561 -0.111125 -0.018369701)
(-0.01449497 -0.111125 -0.02053469)
(-0.01156382 -0.111125 -0.02231716)
(-0.0084172618 -0.111125 -0.0236839)
(-0.0051139048 -0.111125 -0.02460946)
(-0.0017152861 -0.111125 -0.02507659)
(0.0017152861 -0.111125 -0.02507659)
(0.0051139048 -0.111125 -0.02460946)
(0.0084172618 -0.111125 -0.0236839)
(0.01156382 -0.111125 -0.02231716)
(0.01449497 -0.111125 -0.02053469)
(0.0171561 -0.111125 -0.018369701)
(0.01949765 -0.111125 -0.01586251)
(0.021475989 -0.111125 -0.01305984)
(0.023054279 -0.111125 -0.01001389)
(0.02420311 -0.111125 -0.0067813918)
(0.024901081 -0.111125 -0.0034225739)
(0.025135189 -0.111125 0)
(0.024901081 -0.111125 0.0034225739)
(0.02420311 -0.111125 0.0067813918)
(0.023054279 -0.111125 0.01001389)
(0.021475989 -0.111125 0.01305984)
(0.01949765 -0.111125 0.01586251)
(0.0171561 -0.111125 0.018369701)
(0.01449497 -0.111125 0.02053469)
(0.01156382 -0.111125 0.02231716)
(0.0084172618 -0.111125 0.0236839)
(0.0051139048 -0.111125 0.02460946)
(0.0017152861 -0.111125 0.02507659)
(-0.0017152861 -0.111125 0.02507659)
(-0.0051139048 -0.111125 0.02460946)
(-0.0084172618 -0.111125 0.0236839)
(-0.01156382 -0.111125 0.02231716)
(-0.01449497 -0.111125 0.02053469)
(-0.0171561 -0.111125 0.018369701)
(-0.01949765 -0.111125 0.01586251)
(-0.021475989 -0.111125 0.01305984)
(-0.023054279 -0.111125 0.01001389)
(-0.02420311 -0.111125 0.0067813918)
(-0.024901081 -0.111125 0.0034225739)
)

// edges

180
(
(132 133)
(133 134)
(134 135)
(135 136)
(136 137)
(137 138)
(138 139)
(139 140)
(140 141)
(141 142)
(142 143)
(143 144)
(144 145)
(145 146)
(146 147)
(147 148)
(148 149)
(149 150)
(150 151)
(151 152)
(152 153)
(153 154)
(154 155)
(155 156)
(156 157)
(157 158)
(158 159)
(159 160)
(160 161)
(161 162)
(162 163)
(163 164)
(164 165)
(165 166)
(166 167)
(167 168)
(168 169)
(169 170)
(170 171)
(171 172)
(172 173)
(173 174)
(174 175)
(175 176)
(176 177)
(177 132)
(2 0)
(3 2)
(4 3)
(5 4)
(6 5)
(7 6)
(8 7)
(9 8)
(10 9)
(11 10)
(12 11)
(13 12)
(14 13)
(15 14)
(16 15)
(17 16)
(18 17)
(19 18)
(20 19)
(21 20)
(22 21)
(23 22)
(24 23)
(25 24)
(26 25)
(27 26)
(28 27)
(29 28)
(30 29)
(31 30)
(32 31)
(1 32)
(33 34)
(34 1)
(35 33)
(36 35)
(37 36)
(38 37)
(39 38)
(40 39)
(41 40)
(42 41)
(43 42)
(44 43)
(45 44)
(46 45)
(47 46)
(48 47)
(49 48)
(50 49)
(51 50)
(52 53)
(53 51)
(54 52)
(55 54)
(56 55)
(57 58)
(58 56)
(59 57)
(60 59)
(61 60)
(62 61)
(63 62)
(0 63)
(1 64)
(64 65)
(65 66)
(66 67)
(67 68)
(68 69)
(69 70)
(70 71)
(71 72)
(72 73)
(73 74)
(74 75)
(75 76)
(76 77)
(77 78)
(78 79)
(79 80)
(80 81)
(81 82)
(82 83)
(83 84)
(84 85)
(85 86)
(86 87)
(87 88)
(88 89)
(89 90)
(90 91)
(91 92)
(92 93)
(93 94)
(94 95)
(95 96)
(96 97)
(97 0)
(0 98)
(98 99)
(99 100)
(100 101)
(101 102)
(102 103)
(103 104)
(104 105)
(105 106)
(106 107)
(107 108)
(108 109)
(109 110)
(110 111)
(111 112)
(112 113)
(113 114)
(114 115)
(115 116)
(116 117)
(117 118)
(118 119)
(119 120)
(120 121)
(121 122)
(122 123)
(123 124)
(124 125)
(125 126)
(126 127)
(127 128)
(128 129)
(129 130)
(130 131)
(131 1)
)

// concaveStart mixedStart nonFeatureStart
0 0 2
// internalStart flatStart openStart multipleStart
0 46 46 180
// normals

222
(
(0.9987954 -0 0.04906879)
(0.98917662 -0 0.14672971)
(0.97003118 -0 0.24298046)
(0.94154407 -0 0.33688984)
(0.90398944 -0 0.42755478)
(0.85772848 -0 0.51410297)
(0.80320717 -0 0.59569979)
(0.74095174 -0 0.67155828)
(0.67155828 -0 0.74095174)
(0.59569979 -0 0.80320717)
(0.51410297 -0 0.85772848)
(0.42755478 -0 0.90398944)
(0.33688984 -0 0.94154407)
(0.24298046 -0 0.97003118)
(0.14672971 -0 0.98917662)
(0.04906879 -2.8148378e-16 0.9987954)
(-0.04906879 0 0.9987954)
(-0.14672971 0 0.98917662)
(-0.24298046 0 0.97003118)
(-0.33688984 0 0.94154407)
(-0.42755478 0 0.90398944)
(-0.51410297 0 0.85772848)
(-0.59569979 0 0.80320717)
(-0.67155828 0 0.74095174)
(-0.74095174 0 0.67155828)
(-0.80320717 0 0.59569979)
(-0.85772848 0 0.51410297)
(-0.90398944 0 0.42755478)
(-0.94154407 0 0.33688984)
(-0.97003118 0 0.24298046)
(-0.98917662 0 0.14672971)
(-0.9987954 -6.0091942e-18 0.04906879)
(-0.98917662 0 -0.14672971)
(-0.9987954 0 -0.04906879)
(-0.97003118 0 -0.24298046)
(-0.94154407 0 -0.33688984)
(-0.90398944 0 -0.42755478)
(-0.85772848 0 -0.51410297)
(-0.80320717 0 -0.59569979)
(-0.74095174 0 -0.67155828)
(-0.67155828 0 -0.74095174)
(-0.59569979 0 -0.80320717)
(-0.51410297 0 -0.85772848)
(-0.42755478 0 -0.90398944)
(-0.33688984 0 -0.94154407)
(-0.24298046 0 -0.97003118)
(-0.14672971 0 -0.98917662)
(-0.04906879 4.9310349e-17 -0.9987954)
(0.04906879 0 -0.9987954)
(0.14672971 0 -0.98917662)
(0.24298046 0 -0.97003118)
(0.42755478 0 -0.90398944)
(0.33688984 0 -0.94154407)
(0.51410297 0 -0.85772848)
(0.59569979 0 -0.80320717)
(0.67155828 0 -0.74095174)
(0.80320717 0 -0.59569979)
(0.74095174 0 -0.67155828)
(0.85772848 0 -0.51410297)
(0.90398944 0 -0.42755478)
(0.94154407 0 -0.33688984)
(0.97003118 0 -0.24298046)
(0.98917662 0 -0.14672971)
(0.9987954 -6.0091932e-18 -0.04906879)
(0 1 0)
(0 1 0)
(0 1 0)
(0 1 0)
(0 1 0)
(0 1 0)
(0 1 0)
(0 1 0)
(0 1 0)
(0 1 0)
(0 1 0)
(0 1 0)
(0 1 0)
(0 1 0)
(0 1 0)
(0 1 0)
(0 1 0)
(0 1 0)
(0 1 0)
(0 1 0)
(0 1 0)
(0 1 0)
(0 1 0)
(0 1 0)
(0 1 0)
(0 1 0)
(0 1 0)
(0 1 0)
(0 1 0)
(0 1 0)
(0 1 0)
(0 1 0)
(0 1 0)
(0 1 0)
(0 1 0)
(0 1 0)
(0 1 0)
(0 1 0)
(0 1 0)
(0 1 0)
(0 1 0)
(0 1 0)
(0 1 0)
(0 1 0)
(0 1 0)
(0 1 0)
(0 1 0)
(0 1 0)
(0 1 0)
(0 1 0)
(0 1 0)
(0 1 0)
(0 1 0)
(0 1 0)
(0 1 0)
(0 1 0)
(0 1 0)
(0 1 0)
(0 1 0)
(0 1 0)
(0 1 0)
(0 1 0)
(0 1 0)
(0 1 0)
(0 1 0)
(0 1 0)
(0 1 0)
(0 1 0)
(0.8787528 0.4734771 0.060107812)
(0 1 0)
(0.86238631 0.47347132 0.17920594)
(0 1 0)
(0.82995768 0.47346022 0.29496724)
(0 1 0)
(0.78207004 0.47344365 0.40523767)
(0 1 0)
(0.71961629 0.47342222 0.50796042)
(0 1 0)
(0.64375753 0.47339482 0.60122673)
(0 1 0)
(0.55590516 0.47336216 0.68329914)
(0 1 0)
(0.45769495 0.47332408 0.75264842)
(0 1 0)
(0.35095552 0.47328078 0.80798238)
(0 1 0)
(0.23767488 0.47323105 0.84827061)
(0 1 0)
(0.11995878 0.47317674 0.87276209)
(0 1 0)
(0 0.47311656 0.88099984)
(0 1 0)
(-0.11995878 0.47317674 0.87276209)
(0 1 0)
(-0.23767488 0.47323105 0.84827061)
(0 1 0)
(-0.35095552 0.47328078 0.80798238)
(0 1 0)
(-0.45769495 0.47332408 0.75264842)
(0 1 0)
(-0.55590516 0.47336216 0.68329914)
(0 1 0)
(-0.64375753 0.47339482 0.60122673)
(0 1 0)
(-0.71961629 0.47342222 0.50796042)
(0 1 0)
(-0.78207004 0.47344365 0.40523767)
(0 1 0)
(-0.82995768 0.47346022 0.29496724)
(0 1 0)
(-0.86238631 0.47347132 0.17920594)
(0 1 0)
(-0.8787528 0.4734771 0.060107812)
(0 1 0)
(-0.8787528 0.4734771 -0.060107812)
(0 1 0)
(-0.86238631 0.47347132 -0.17920594)
(0 1 0)
(-0.82995768 0.47346022 -0.29496724)
(0 1 0)
(-0.78207004 0.47344365 -0.40523767)
(0 1 0)
(-0.71961629 0.47342222 -0.50796042)
(0 1 0)
(-0.64375753 0.47339482 -0.60122673)
(-0.55590516 0.47336216 -0.68329914)
(0 1 0)
(-0.45769495 0.47332408 -0.75264842)
(-0.35095552 0.47328078 -0.80798238)
(0 1 0)
(-0.23767488 0.47323105 -0.84827061)
(0 1 0)
(-0.11995878 0.47317674 -0.87276209)
(0 1 0)
(0 0.47311656 -0.88099984)
(0 1 0)
(0.11995878 0.47317674 -0.87276209)
(0 1 0)
(0.23767488 0.47323105 -0.84827061)
(0 1 0)
(0.35095552 0.47328078 -0.80798238)
(0 1 0)
(0.45769495 0.47332408 -0.75264842)
(0 1 0)
(0.55590516 0.47336216 -0.68329914)
(0 1 0)
(0.64375753 0.47339482 -0.60122673)
(0 1 0)
(0.71961629 0.47342222 -0.50796042)
(0 1 0)
(0.78207004 0.47344365 -0.40523767)
(0 1 0)
(0.82995768 0.47346022 -0.29496724)
(0 1 0)
(0.86238631 0.47347132 -0.17920594)
(0 1 0)
(0.8787528 0.4734771 -0.060107812)
(0 1 0)
)

// normal volume types

222
(
0
0
0
0
0
0
0
0
0
0
0
0
0
0
0
0
0
0
0
0
0
0
0
0
0
0
0
0
0
0
0
0
0
0
0
0
0
0
0
0
0
0
0
0
0
0
0
0
0
0
0
0
0
0
0
0
0
0
0
0
0
0
0
0
0
0
0
0
0
0
0
0
0
0
0
0
0
0
0
0
0
0
0
0
0
0
0
0
0
0
0
0
0
0
0
0
0
0
0
0
0
0
0
0
0
0
0
0
0
0
0
0
0
0
0
0
0
0
0
0
0
0
0
0
0
0
0
0
0
0
0
0
0
0
0
0
0
0
0
0
0
0
0
0
0
0
0
0
0
0
0
0
0
0
0
0
0
0
0
0
0
0
0
0
0
0
0
0
0
0
0
0
0
0
0
0
0
0
0
0
0
0
0
0
0
0
0
0
0
0
0
0
0
0
0
0
0
0
0
0
0
0
0
0
0
0
0
0
0
0
0
0
0
0
0
0
0
0
0
0
0
0
)

// normalDirections

180
(
2(1 -1)
2(1 -1)
2(1 -1)
2(1 -1)
2(1 -1)
2(1 -1)
2(1 -1)
2(1 -1)
2(1 -1)
2(1 -1)
2(1 -1)
2(1 -1)
2(1 -1)
2(1 -1)
2(1 -1)
2(1 -1)
2(1 -1)
2(1 -1)
2(1 -1)
2(1 -1)
2(1 -1)
2(1 -1)
2(1 -1)
2(1 -1)
2(1 -1)
2(1 -1)
2(1 -1)
2(1 -1)
2(1 -1)
2(1 -1)
2(1 -1)
2(1 -1)
2(1 -1)
2(1 -1)
2(1 -1)
2(1 -1)
2(1 -1)
2(1 -1)
2(1 -1)
2(1 -1)
2(1 -1)
2(1 -1)
2(1 -1)
2(1 -1)
2(1 -1)
2(1 -1)
1(1)
1(1)
1(1)
1(1)
1(1)
1(1)
1(1)
1(1)
1(1)
1(1)
1(1)
1(1)
1(1)
1(1)
1(1)
1(1)
1(1)
1(1)
1(1)
1(1)
1(1)
1(1)
1(1)
1(1)
1(1)
1(1)
1(1)
1(1)
1(1)
1(1)
1(1)
1(1)
1(1)
1(1)
1(1)
1(1)
1(1)
1(1)
1(1)
1(1)
1(1)
1(1)
1(1)
1(1)
1(1)
1(1)
1(1)
1(1)
1(1)
1(1)
1(1)
1(1)
1(1)
1(1)
1(1)
1(1)
1(1)
1(1)
1(1)
1(1)
1(1)
1(1)
1(1)
1(1)
1(1)
1(1)
1(1)
1(1)
1(1)
1(1)
1(1)
1(1)
1(1)
1(1)
1(1)
1(1)
1(1)
1(1)
1(1)
1(1)
1(1)
1(1)
1(1)
1(1)
1(1)
1(1)
1(1)
1(1)
1(1)
1(1)
1(1)
1(1)
1(1)
1(1)
1(1)
1(1)
1(1)
1(1)
1(1)
1(1)
1(1)
1(1)
1(1)
1(1)
1(1)
1(1)
1(1)
1(1)
1(1)
1(1)
1(1)
1(1)
1(1)
1(1)
1(1)
1(1)
1(1)
1(1)
1(1)
1(1)
1(1)
1(1)
1(1)
1(1)
1(1)
1(1)
1(1)
1(1)
1(1)
1(1)
1(1)
1(1)
1(1)
1(1)
)

// edgeNormals

180
(
2(132 133)
2(134 135)
2(136 137)
2(138 139)
2(140 141)
2(142 143)
2(144 145)
2(146 147)
2(148 149)
2(150 151)
2(152 153)
2(154 155)
2(156 157)
2(158 159)
2(160 161)
2(162 163)
2(164 165)
2(166 167)
2(168 169)
2(170 171)
2(172 173)
2(174 175)
2(176 177)
2(178 179)
2(180 181)
2(182 183)
2(184 185)
2(186 187)
2(188 187)
2(189 190)
2(191 190)
2(192 193)
2(194 195)
2(196 197)
2(198 199)
2(200 201)
2(202 203)
2(204 205)
2(206 207)
2(208 209)
2(210 211)
2(212 213)
2(214 215)
2(216 217)
2(218 219)
2(220 221)
1(0)
1(1)
1(2)
1(3)
1(4)
1(5)
1(6)
1(7)
1(8)
1(9)
1(10)
1(11)
1(12)
1(13)
1(14)
1(15)
1(16)
1(17)
1(18)
1(19)
1(20)
1(21)
1(22)
1(23)
1(24)
1(25)
1(26)
1(27)
1(28)
1(29)
1(30)
1(31)
1(32)
1(33)
1(34)
1(35)
1(36)
1(37)
1(38)
1(39)
1(40)
1(41)
1(42)
1(43)
1(44)
1(45)
1(46)
1(47)
1(48)
1(49)
1(50)
1(51)
1(52)
1(53)
1(54)
1(55)
1(56)
1(57)
1(58)
1(59)
1(60)
1(61)
1(62)
1(63)
1(64)
1(65)
1(66)
1(67)
1(68)
1(69)
1(70)
1(71)
1(72)
1(73)
1(74)
1(75)
1(76)
1(77)
1(78)
1(79)
1(80)
1(81)
1(82)
1(83)
1(84)
1(85)
1(86)
1(87)
1(88)
1(89)
1(90)
1(91)
1(92)
1(93)
1(94)
1(95)
1(96)
1(97)
1(98)
1(99)
1(100)
1(101)
1(102)
1(103)
1(104)
1(105)
1(106)
1(107)
1(108)
1(109)
1(110)
1(111)
1(112)
1(113)
1(114)
1(115)
1(116)
1(117)
1(118)
1(119)
1(120)
1(121)
1(122)
1(123)
1(123)
1(124)
1(124)
1(125)
1(126)
1(127)
1(128)
1(129)
1(130)
1(131)
)

// featurePointNormals

2
(
3(0 63 98)
3(31 33 64)
)

// featurePointEdges

2
(
4(46 109 144 145)
4(77 79 110 179)
)

// regionEdges

134
(
46
47
48
49
50
51
52
53
54
55
56
57
58
59
60
61
62
63
64
65
66
67
68
69
70
71
72
73
74
75
76
77
78
79
80
81
82
83
84
85
86
87
88
89
90
91
92
93
94
95
96
97
98
99
100
101
102
103
104
105
106
107
108
109
110
111
112
113
114
115
116
117
118
119
120
121
122
123
124
125
126
127
128
129
130
131
132
133
134
135
136
137
138
139
140
141
142
143
144
145
146
147
148
149
150
151
152
153
154
155
156
157
158
159
160
161
162
163
164
165
166
167
168
169
170
171
172
173
174
175
176
177
178
179
)



// ************************************************************************* //
