/*--------------------------------*- C++ -*----------------------------------*\
  =========                 |
  \\      /  F ield         | OpenFOAM: The Open Source CFD Toolbox
   \\    /   O peration     | Website:  https://openfoam.org
    \\  /    A nd           | Version:  7
     \\/     M anipulation  |
\*---------------------------------------------------------------------------*/
FoamFile
{
    version     2.0;
    format      ascii;
    class       dictionary;
    location    "constant/metal";
    object      thermophysicalProperties;
}
// * * * * * * * * * * * * * * * * * * * * * * * * * * * * * * * * * * * * * //

thermoType
{
	type            heSolidThermo;
	mixture         pureMixture;
	transport       constIso;
	thermo          hConst;
	equationOfState rhoConst;
	specie          specie;
	energy          sensibleEnthalpy;
}

mixture
{
	// Silica

	specie
	{
		molWeight       28;
	}
	equationOfState
	{
		rho             2330;
	}
	transport
	{
		kappa           168;
	}
	thermodynamics
	{
		Hf              0;
		Cp              703;
	}
}

// ************************************************************************* //
