/*--------------------------------*- C++ -*----------------------------------*\
| =========                 |                                                 |
| \\      /  F ield         | OpenFOAM: The Open Source CFD Toolbox           |
|  \\    /   O peration     | Version:  2112                                  |
|   \\  /    A nd           | Website:  www.openfoam.com                      |
|    \\/     M anipulation  |                                                 |
\*---------------------------------------------------------------------------*/
FoamFile
{
    version     2.0;
    format      ascii;
    arch        "LSB;label=32;scalar=64";
    class       featureEdgeMesh;
    location    "constant/triSurface";
    object      cup.eMesh;
}
// * * * * * * * * * * * * * * * * * * * * * * * * * * * * * * * * * * * * * //


// points:

299
(
(0.050799999 0.017145 0)
(0.050799999 0.0084641529 -0.001924928)
(0.050799999 0.0083049824 -0.00094958523)
(0.050799999 0.0082550002 0)
(0.050715409 0.01664342 0.002930349)
(0.050773431 0.016993919 0.001642216)
(0.050799999 0.01709502 0.00094958523)
(0.05079326 0.017107541 0.00082517578)
(0.050781399 0.0083599584 -0.00137261)
(0.050727598 0.0086799739 -0.002710338)
(0.050758291 0.016905021 -0.002058256)
(0.05075812 0.0084959446 0.002062276)
(0.02697932 -0.1143 4.7626098e-18)
(0.02670471 -0.1143 -0.0038395571)
(0.025886459 -0.1143 -0.0076009519)
(0.024541249 -0.1143 -0.01120761)
(0.02269645 -0.1143 -0.01458612)
(0.020389611 -0.1143 -0.0176677)
(0.0176677 -0.1143 -0.020389611)
(0.01458612 -0.1143 -0.02269645)
(0.01120761 -0.1143 -0.024541249)
(0.0076009519 -0.1143 -0.025886459)
(0.0038395571 -0.1143 -0.02670471)
(4.2916182e-17 -0.1143 -0.02697932)
(-0.0038395571 -0.1143 -0.02670471)
(-0.0076009519 -0.1143 -0.025886459)
(-0.01120761 -0.1143 -0.024541249)
(-0.01458612 -0.1143 -0.02269645)
(-0.0176677 -0.1143 -0.020389611)
(-0.020389611 -0.1143 -0.0176677)
(-0.02269645 -0.1143 -0.01458612)
(-0.024541249 -0.1143 -0.01120761)
(-0.025886459 -0.1143 -0.0076009519)
(-0.02670471 -0.1143 -0.0038395571)
(-0.02697932 -0.1143 0)
(-0.047345821 0.0063499999 0.005149168)
(-0.047625002 0.0063499999 1.9441269e-18)
(-0.04651155 0.0063499999 0.01023797)
(-0.045131981 0.0063499999 0.01520674)
(-0.04322328 0.0063499999 0.01999722)
(-0.040807821 0.0063499999 0.024553251)
(-0.03791393 0.0063499999 0.02882142)
(-0.034575541 0.0063499999 0.032751691)
(-0.030831769 0.0063499999 0.03629797)
(-0.026726531 0.0063499999 0.03941869)
(-0.022307949 0.0063499999 0.042077258)
(-0.01762783 0.0063499999 0.04424252)
(-0.01274104 0.0063499999 0.045889068)
(-0.007704868 0.0063499999 0.04699761)
(-0.0025783661 0.0063499999 0.047555149)
(0.0025783661 0.0063499999 0.047555149)
(0.007704868 0.0063499999 0.04699761)
(0.01274104 0.0063499999 0.045889068)
(0.01762783 0.0063499999 0.04424252)
(0.022307949 0.0063499999 0.042077258)
(0.026726531 0.0063499999 0.03941869)
(0.030831769 0.0063499999 0.03629797)
(0.034575541 0.0063499999 0.032751691)
(0.03791393 0.0063499999 0.02882142)
(0.040807821 0.0063499999 0.024553251)
(0.04322328 0.0063499999 0.01999722)
(0.045131981 0.0063499999 0.01520674)
(0.04651155 0.0063499999 0.01023797)
(0.047345821 0.0063499999 0.005149168)
(0.047625002 0.0063499999 3.8882539e-18)
(-0.02670471 -0.1143 0.0038395571)
(-0.025886459 -0.1143 0.0076009519)
(-0.024541249 -0.1143 0.01120761)
(-0.02269645 -0.1143 0.01458612)
(-0.020389611 -0.1143 0.0176677)
(-0.0176677 -0.1143 0.020389611)
(-0.01458612 -0.1143 0.02269645)
(-0.01120761 -0.1143 0.024541249)
(-0.0076009519 -0.1143 0.025886459)
(-0.0038395571 -0.1143 0.02670471)
(6.3550938e-18 -0.1143 0.02697932)
(0.0038395571 -0.1143 0.02670471)
(0.0076009519 -0.1143 0.025886459)
(0.01120761 -0.1143 0.024541249)
(0.01458612 -0.1143 0.02269645)
(0.0176677 -0.1143 0.020389611)
(0.020389611 -0.1143 0.0176677)
(0.02269645 -0.1143 0.01458612)
(0.024541249 -0.1143 0.01120761)
(0.025886459 -0.1143 0.0076009519)
(0.02670471 -0.1143 0.0038395571)
(0.047345821 0.0063499999 -0.005149168)
(0.04651155 0.0063499999 -0.01023797)
(0.045131981 0.0063499999 -0.01520674)
(0.04322328 0.0063499999 -0.01999722)
(0.040807821 0.0063499999 -0.024553251)
(0.03791393 0.0063499999 -0.02882142)
(0.034575541 0.0063499999 -0.032751691)
(0.030831769 0.0063499999 -0.03629797)
(0.026726531 0.0063499999 -0.03941869)
(0.022307949 0.0063499999 -0.042077258)
(0.01762783 0.0063499999 -0.04424252)
(0.01274104 0.0063499999 -0.045889068)
(0.007704868 0.0063499999 -0.04699761)
(0.0025783661 0.0063499999 -0.047555149)
(-0.0025783661 0.0063499999 -0.047555149)
(-0.007704868 0.0063499999 -0.04699761)
(-0.01274104 0.0063499999 -0.045889068)
(-0.01762783 0.0063499999 -0.04424252)
(-0.022307949 0.0063499999 -0.042077258)
(-0.026726531 0.0063499999 -0.03941869)
(-0.030831769 0.0063499999 -0.03629797)
(-0.034575541 0.0063499999 -0.032751691)
(-0.03791393 0.0063499999 -0.02882142)
(-0.040807821 0.0063499999 -0.024553251)
(-0.04322328 0.0063499999 -0.01999722)
(-0.045131981 0.0063499999 -0.01520674)
(-0.04651155 0.0063499999 -0.01023797)
(-0.047345821 0.0063499999 -0.005149168)
(0.050799999 0.01693585 0.001924928)
(0.050521709 0.0254 -0.005310046)
(0.050799999 0.0254 6.2212059e-18)
(0.0496899 0.0254 -0.01056191)
(0.04831367 0.0254 -0.01569806)
(0.046408109 0.0254 -0.02066222)
(0.043994091 0.0254 -0.0254)
(0.041098058 0.0254 -0.029859491)
(0.03775176 0.0254 -0.033991829)
(0.033991829 0.0254 -0.03775176)
(0.029859491 0.0254 -0.041098058)
(0.0254 0.0254 -0.043994091)
(0.02066222 0.0254 -0.046408109)
(0.01569806 0.0254 -0.04831367)
(0.01056191 0.0254 -0.0496899)
(0.005310046 0.0254 -0.050521709)
(5.1340669e-17 0.0254 -0.050799999)
(-0.005310046 0.0254 -0.050521709)
(-0.01056191 0.0254 -0.0496899)
(-0.01569806 0.0254 -0.04831367)
(-0.02066222 0.0254 -0.046408109)
(-0.0254 0.0254 -0.043994091)
(-0.029859491 0.0254 -0.041098058)
(-0.033991829 0.0254 -0.03775176)
(-0.03775176 0.0254 -0.033991829)
(-0.041098058 0.0254 -0.029859491)
(-0.043994091 0.0254 -0.0254)
(-0.046408109 0.0254 -0.02066222)
(-0.04831367 0.0254 -0.01569806)
(-0.0496899 0.0254 -0.01056191)
(-0.050521709 0.0254 -0.005310046)
(-0.050799999 0.0254 0)
(0.050799999 0.0085242046 0.0021762911)
(-0.047625002 0.0254 0)
(-0.047345821 0.0254 0.005149168)
(-0.04651155 0.0254 0.01023797)
(-0.045131981 0.0254 0.01520674)
(-0.04322328 0.0254 0.01999722)
(-0.040807821 0.0254 0.024553251)
(-0.03791393 0.0254 0.02882142)
(-0.034575541 0.0254 0.032751691)
(-0.030831769 0.0254 0.03629797)
(-0.026726531 0.0254 0.03941869)
(-0.022307949 0.0254 0.042077258)
(-0.01762783 0.0254 0.04424252)
(-0.01274104 0.0254 0.045889068)
(-0.007704868 0.0254 0.04699761)
(-0.0025783661 0.0254 0.047555149)
(0.0025783661 0.0254 0.047555149)
(0.007704868 0.0254 0.04699761)
(0.01274104 0.0254 0.045889068)
(0.01762783 0.0254 0.04424252)
(0.022307949 0.0254 0.042077258)
(0.026726531 0.0254 0.03941869)
(0.030831769 0.0254 0.03629797)
(0.034575541 0.0254 0.032751691)
(0.03791393 0.0254 0.02882142)
(0.040807821 0.0254 0.024553251)
(0.04322328 0.0254 0.01999722)
(0.045131981 0.0254 0.01520674)
(0.04651155 0.0254 0.01023797)
(0.047345821 0.0254 0.005149168)
(0.047625002 0.0254 5.8323802e-18)
(0.057811681 -0.070264786 0.0041892389)
(0.057868991 -0.070589788 0.0046719401)
(0.05785187 -0.071211837 0.0053440938)
(0.05792927 -0.070931651 0.0050839442)
(0.047345821 0.0254 -0.005149168)
(0.04651155 0.0254 -0.01023797)
(0.045131981 0.0254 -0.01520674)
(0.04322328 0.0254 -0.01999722)
(0.040807821 0.0254 -0.024553251)
(0.03791393 0.0254 -0.02882142)
(0.034575541 0.0254 -0.032751691)
(0.030831769 0.0254 -0.03629797)
(0.026726531 0.0254 -0.03941869)
(0.022307949 0.0254 -0.042077258)
(0.01762783 0.0254 -0.04424252)
(0.01274104 0.0254 -0.045889068)
(0.007704868 0.0254 -0.04699761)
(0.0025783661 0.0254 -0.047555149)
(-0.0025783661 0.0254 -0.047555149)
(-0.007704868 0.0254 -0.04699761)
(-0.01274104 0.0254 -0.045889068)
(-0.01762783 0.0254 -0.04424252)
(-0.022307949 0.0254 -0.042077258)
(-0.026726531 0.0254 -0.03941869)
(-0.030831769 0.0254 -0.03629797)
(-0.034575541 0.0254 -0.032751691)
(-0.03791393 0.0254 -0.02882142)
(-0.040807821 0.0254 -0.024553251)
(-0.04322328 0.0254 -0.01999722)
(-0.045131981 0.0254 -0.01520674)
(-0.04651155 0.0254 -0.01023797)
(-0.047345821 0.0254 -0.005149168)
(-0.050521709 0.0254 0.005310046)
(-0.0496899 0.0254 0.01056191)
(-0.04831367 0.0254 0.01569806)
(-0.046408109 0.0254 0.02066222)
(-0.043994091 0.0254 0.0254)
(-0.041098058 0.0254 0.029859491)
(-0.03775176 0.0254 0.033991829)
(-0.033991829 0.0254 0.03775176)
(-0.029859491 0.0254 0.041098058)
(-0.0254 0.0254 0.043994091)
(-0.02066222 0.0254 0.046408109)
(-0.01569806 0.0254 0.04831367)
(-0.01056191 0.0254 0.0496899)
(-0.005310046 0.0254 0.050521709)
(-1.7501071e-17 0.0254 0.050799999)
(0.005310046 0.0254 0.050521709)
(0.050521709 0.0254 0.005310046)
(0.01056191 0.0254 0.0496899)
(0.0496899 0.0254 0.01056191)
(0.01569806 0.0254 0.04831367)
(0.04831367 0.0254 0.01569806)
(0.02066222 0.0254 0.046408109)
(0.046408109 0.0254 0.02066222)
(0.0254 0.0254 0.043994091)
(0.043994091 0.0254 0.0254)
(0.029859491 0.0254 0.041098058)
(0.041098058 0.0254 0.029859491)
(0.033991829 0.0254 0.03775176)
(0.03775176 0.0254 0.033991829)
(0.050799999 0.0168758 -0.0021762911)
(0.050799999 0.0088853631 -0.003259701)
(0.042894948 -0.076287009 0.0063499999)
(0.042687099 -0.077005461 0.0062771402)
(0.04250437 -0.077698097 0.0060624601)
(0.042349249 -0.078347102 0.005717407)
(0.042223349 -0.078931682 0.0052621211)
(0.042124059 -0.079443708 0.004718102)
(0.042027339 -0.080004551 0.0038954159)
(0.041955851 -0.080476873 0.0028757639)
(0.041913591 -0.080790617 0.001790149)
(0.0418959 -0.080931343 0.00090014108)
(0.041890372 -0.080977708 2.7318909e-18)
(0.04192093 -0.080734201 -0.002035314)
(0.042001888 -0.080165587 -0.0035940921)
(0.042128898 -0.079417437 -0.0047501321)
(0.042288162 -0.078623131 -0.0055214572)
(0.042483389 -0.077781998 -0.0060264221)
(0.04267529 -0.077048413 -0.0062679541)
(0.042894948 -0.076287009 -0.0063499999)
(0.04473323 -0.071449302 5.0956762e-18)
(0.04465279 -0.071626417 -0.001692368)
(0.044419501 -0.072158411 -0.003292077)
(0.044140998 -0.072817549 -0.0044068601)
(0.04380586 -0.073653989 -0.0053125969)
(0.043520659 -0.074411817 -0.0058443872)
(0.043222811 -0.075260989 -0.0062021841)
(0.043056238 -0.075768299 -0.006312361)
(0.050410531 0.01336576 0.006278377)
(0.050401561 0.0127 0.0063499999)
(0.050435711 0.01399875 0.0060728518)
(0.05047331 0.01458318 0.0057519642)
(0.05051871 0.01510683 0.0053385799)
(0.050583441 0.01570002 0.0046856962)
(0.050654259 0.016237371 0.003845263)
(0.05066938 0.0090575228 -0.00364)
(0.050599799 0.0095676985 -0.004505456)
(0.050534379 0.01013686 -0.0051881019)
(0.050487678 0.01063669 -0.0056244531)
(0.05044686 0.01120387 -0.0059794909)
(0.050417069 0.01182494 -0.006225693)
(0.050402518 0.01248202 -0.0063423701)
(0.050657231 0.01625842 -0.00380555)
(0.05056005 0.01550013 -0.0049316389)
(0.050479949 0.01466846 -0.0056933858)
(0.050429121 0.01386684 -0.0061272769)
(0.050405689 0.01315115 -0.0063171899)
(0.050656781 0.0091447188 0.0038115249)
(0.05055945 0.0099051949 0.004937795)
(0.050479379 0.01073873 0.005698449)
(0.05042867 0.01154282 0.0061310199)
(0.050408632 0.01210929 0.0062936801)
(0.04471273 -0.071493849 0.00085469958)
(0.043222811 -0.075260989 0.0062021841)
(0.04354088 -0.074356452 0.0058129448)
(0.043844402 -0.07355509 0.005225467)
(0.044115979 -0.072878383 0.0044876621)
(0.04434656 -0.072328538 0.0036317799)
(0.044526629 -0.071911529 0.0026937081)
(0.04305505 -0.07577195 0.0063130772)
(0.044652231 -0.071627647 0.00169851)
)


// edges:

303
(
(3 2)
(114 4)
(114 5)
(6 5)
(6 7)
(115 116)
(117 115)
(118 117)
(119 118)
(120 119)
(121 120)
(122 121)
(123 122)
(124 123)
(125 124)
(126 125)
(127 126)
(128 127)
(129 128)
(130 129)
(131 130)
(132 131)
(133 132)
(134 133)
(135 134)
(136 135)
(137 136)
(138 137)
(139 138)
(140 139)
(141 140)
(142 141)
(143 142)
(144 143)
(145 144)
(146 11)
(147 148)
(148 149)
(149 150)
(150 151)
(151 152)
(152 153)
(153 154)
(154 155)
(155 156)
(156 157)
(157 158)
(158 159)
(159 160)
(160 161)
(161 162)
(162 163)
(163 164)
(164 165)
(165 166)
(166 167)
(167 168)
(168 169)
(169 170)
(170 171)
(171 172)
(172 173)
(173 174)
(174 175)
(175 176)
(177 178)
(179 180)
(176 181)
(181 182)
(182 183)
(183 184)
(184 185)
(185 186)
(186 187)
(187 188)
(188 189)
(189 190)
(190 191)
(191 192)
(192 193)
(193 194)
(194 195)
(195 196)
(196 197)
(197 198)
(198 199)
(199 200)
(200 201)
(201 202)
(202 203)
(203 204)
(204 205)
(205 206)
(206 207)
(207 208)
(208 147)
(145 209)
(209 210)
(210 211)
(211 212)
(212 213)
(213 214)
(214 215)
(215 216)
(216 217)
(217 218)
(218 219)
(219 220)
(220 221)
(221 222)
(222 223)
(223 224)
(225 116)
(224 226)
(227 225)
(226 228)
(229 227)
(228 230)
(231 229)
(230 232)
(233 231)
(232 234)
(235 233)
(234 236)
(236 237)
(237 235)
(238 10)
(239 9)
(1 9)
(1 8)
(2 8)
(240 241)
(241 242)
(242 243)
(243 244)
(244 245)
(245 246)
(246 247)
(247 248)
(248 249)
(249 250)
(250 251)
(251 252)
(252 253)
(253 254)
(254 255)
(255 256)
(256 257)
(2 1)
(258 259)
(259 260)
(260 261)
(261 262)
(262 263)
(263 264)
(265 257)
(264 265)
(266 267)
(268 266)
(269 268)
(270 269)
(271 270)
(272 271)
(4 272)
(5 4)
(7 5)
(6 0)
(0 7)
(8 3)
(9 8)
(0 10)
(273 9)
(274 273)
(275 274)
(276 275)
(277 276)
(278 277)
(279 278)
(10 280)
(280 281)
(281 282)
(282 283)
(283 284)
(284 279)
(11 3)
(285 11)
(286 285)
(287 286)
(288 287)
(289 288)
(267 289)
(290 258)
(291 292)
(292 293)
(293 294)
(294 295)
(295 296)
(297 291)
(240 297)
(296 298)
(298 290)
(12 13)
(13 14)
(14 15)
(15 16)
(16 17)
(17 18)
(18 19)
(19 20)
(20 21)
(21 22)
(22 23)
(23 24)
(24 25)
(25 26)
(26 27)
(27 28)
(28 29)
(29 30)
(30 31)
(31 32)
(32 33)
(33 34)
(35 36)
(37 35)
(38 37)
(39 38)
(40 39)
(41 40)
(42 41)
(43 42)
(44 43)
(45 44)
(46 45)
(47 46)
(48 47)
(49 48)
(50 49)
(51 50)
(52 51)
(53 52)
(54 53)
(55 54)
(56 55)
(57 56)
(58 57)
(59 58)
(60 59)
(61 60)
(62 61)
(63 62)
(64 63)
(34 65)
(65 66)
(66 67)
(67 68)
(68 69)
(69 70)
(70 71)
(71 72)
(72 73)
(73 74)
(74 75)
(75 76)
(76 77)
(77 78)
(78 79)
(79 80)
(80 81)
(81 82)
(82 83)
(83 84)
(84 85)
(85 12)
(86 64)
(87 86)
(88 87)
(89 88)
(90 89)
(91 90)
(92 91)
(93 92)
(94 93)
(95 94)
(96 95)
(97 96)
(98 97)
(99 98)
(100 99)
(101 100)
(102 101)
(103 102)
(104 103)
(105 104)
(106 105)
(107 106)
(108 107)
(109 108)
(110 109)
(111 110)
(112 111)
(113 112)
(36 113)
)

// * * * * * * * * * * * * * * * * * * * * * * * * * * * * * * * * * * * * * //


// ************************************************************************* //
