/*--------------------------------*- C++ -*----------------------------------*\
  =========                 |
  \\      /  F ield         | OpenFOAM: The Open Source CFD Toolbox
   \\    /   O peration     | Website:  https://openfoam.org
    \\  /    A nd           | Version:  7
     \\/     M anipulation  |
\*---------------------------------------------------------------------------*/
FoamFile
{
	version     2.0;
	format      ascii;
	class       dictionary;
	location    "system";
	object      controlDict;
}
// * * * * * * * * * * * * * * * * * * * * * * * * * * * * * * * * * * * * * //

application     	chtMultiRegionFoam;

startFrom       	startTime;

startTime       	0;

stopAt          	endTime;

endTime         	300;

deltaT          	0.1;

writeControl    	adjustableRunTime; 	//Writes data every writeInterval seconds of simulated time
//writeControl    	timeStep;		//Writes data every writeInterval time steps
//writeControl    	clockTime;		//Writes data out every writeInterval seconds of real time
	
writeInterval   	15;

purgeWrite      	20;

writeFormat     	ascii;

writePrecision  	6;

writeCompression 	off;

timeFormat      	general;

timePrecision   	6;

runTimeModifiable 	true;

maxCo           	10.0;

maxDi           	10.0;

adjustTimeStep  	yes;

// ************************************************************************* //

functions
{
	//#includeFunc residuals
	//to see residuals: foamMonitor -l postProcessing/residuals/0/residuals.dat
    
	//#includeFunc  probes
    
	//#includeFunc  surfaces
}


