/*--------------------------------*- C++ -*----------------------------------*\
  =========                 |
  \\      /  F ield         | OpenFOAM: The Open Source CFD Toolbox
   \\    /   O peration     | Website:  https://openfoam.org
    \\  /    A nd           | Version:  7
     \\/     M anipulation  |
\*---------------------------------------------------------------------------*/
FoamFile
{
    version     2.0;
    format      ascii;
    class       dictionary;
    location    "system";
    object      fvSolution;
}
// * * * * * * * * * * * * * * * * * * * * * * * * * * * * * * * * * * * * * //

solvers
{

}

/*===================================================================*/

PIMPLE
{
	momentumPredictor           yes;
	turbOnFinalIterOnly         no;
	nNonOrthogonalCorrectors    0;
	nCorrectors                 1;
	nOuterCorrectors            1;
	pRefCell                    0;
	pRefValue                   100000.0;
 
	
	outerCorrectorResidualControl
	{
		"(U|rho|p_rgh|h|omega|k|epsilon)"
		{
			tolerance     1e-3;
			relTol        1e-6;
		}
	}
}



